REMARK SMILES OC[C@H](O)[C@@H](O)[C@H](O)[C@@H](O)CO
REMARK SMILES IDX 5 1 3 2 2 3 1 4 4 6 6 8 7 10 8 11 9 13 10 14 11 16 12 17
REMARK H PARENT 1 5 4 7 6 9 8 12 10 15 12 18
ROOT
ATOM      1  C   UNL     1       0.884  -0.715  -0.858  1.00  0.00     0.176 C 
ENDROOT
BRANCH   1   2
ATOM      2  C   UNL     1       1.329   0.150   0.334  1.00  0.00     0.171 C 
BRANCH   2   3
ATOM      3  C   UNL     1       2.778  -0.162   0.735  1.00  0.00     0.190 C 
BRANCH   3   4
ATOM      4  O   UNL     1       3.135   0.673   1.844  1.00  0.00    -0.394 OA
ATOM      5  H   UNL     1       3.285   1.568   1.489  1.00  0.00     0.210 HD
ENDBRANCH   3   4
ENDBRANCH   2   3
BRANCH   2   6
ATOM      6  O   UNL     1       0.501  -0.081   1.487  1.00  0.00    -0.388 OA
ATOM      7  H   UNL     1       1.072   0.116   2.258  1.00  0.00     0.211 HD
ENDBRANCH   2   6
ENDBRANCH   1   2
BRANCH   1   8
ATOM      8  O   UNL     1       0.863  -2.096  -0.479  1.00  0.00    -0.388 OA
ATOM      9  H   UNL     1       0.073  -2.182   0.102  1.00  0.00     0.211 HD
ENDBRANCH   1   8
BRANCH   1  10
ATOM     10  C   UNL     1      -0.454  -0.297  -1.515  1.00  0.00     0.176 C 
BRANCH  10  11
ATOM     11  O   UNL     1      -0.323   1.022  -2.061  1.00  0.00    -0.388 OA
ATOM     12  H   UNL     1      -1.204   1.452  -2.012  1.00  0.00     0.211 HD
ENDBRANCH  10  11
BRANCH  10  13
ATOM     13  C   UNL     1      -1.756  -0.493  -0.684  1.00  0.00     0.171 C 
BRANCH  13  14
ATOM     14  O   UNL     1      -1.686  -1.662   0.137  1.00  0.00    -0.388 OA
ATOM     15  H   UNL     1      -2.542  -1.754   0.591  1.00  0.00     0.211 HD
ENDBRANCH  13  14
BRANCH  13  16
ATOM     16  C   UNL     1      -2.201   0.741   0.115  1.00  0.00     0.190 C 
BRANCH  16  17
ATOM     17  O   UNL     1      -2.556   1.798  -0.780  1.00  0.00    -0.394 OA
ATOM     18  H   UNL     1      -2.839   2.546  -0.222  1.00  0.00     0.210 HD
ENDBRANCH  16  17
ENDBRANCH  13  16
ENDBRANCH  10  13
ENDBRANCH   1  10
TORSDOF 11
