REMARK VINA RESULT:    -5.154      0.000      0.000
REMARK INTER + INTRA:          -8.177
REMARK INTER:                  -7.564
REMARK INTRA:                  -0.613
REMARK UNBOUND:                -0.613
REMARK SMILES OC[C@H](O)[C@@H](O)[C@H](O)[C@@H](O)CO
REMARK SMILES IDX 5 1 3 2 2 3 1 4 4 6 6 8 7 10 8 11 9 13 10 14 11 16 12 17
REMARK H PARENT 1 5 4 7 6 9 8 12 10 15 12 18
ROOT
ATOM      1  C   UNL     1     104.242  93.671  45.731  1.00  0.00     0.176 C 
ENDROOT
BRANCH   1   2
ATOM      2  C   UNL     1     104.689  92.323  45.138  1.00  0.00     0.171 C 
BRANCH   2   3
ATOM      3  C   UNL     1     105.236  91.392  46.230  1.00  0.00     0.190 C 
BRANCH   3   4
ATOM      4  O   UNL     1     106.571  91.010  45.877  1.00  0.00    -0.394 OA
ATOM      5  H   UNL     1     106.773  91.436  45.024  1.00  0.00     0.210 HD
ENDBRANCH   3   4
ENDBRANCH   2   3
BRANCH   2   6
ATOM      6  O   UNL     1     105.727  92.500  44.159  1.00  0.00    -0.388 OA
ATOM      7  H   UNL     1     106.188  93.325  44.418  1.00  0.00     0.211 HD
ENDBRANCH   2   6
ENDBRANCH   1   2
BRANCH   1   8
ATOM      8  O   UNL     1     104.040  94.624  44.681  1.00  0.00    -0.388 OA
ATOM      9  H   UNL     1     104.928  94.734  44.271  1.00  0.00     0.211 HD
ENDBRANCH   1   8
BRANCH   1  10
ATOM     10  C   UNL     1     103.011  93.605  46.668  1.00  0.00     0.176 C 
BRANCH  10  11
ATOM     11  O   UNL     1     101.859  93.212  45.911  1.00  0.00    -0.388 OA
ATOM     12  H   UNL     1     101.781  93.825  45.149  1.00  0.00     0.211 HD
ENDBRANCH  10  11
BRANCH  10  13
ATOM     13  C   UNL     1     102.749  94.826  47.598  1.00  0.00     0.171 C 
BRANCH  13  14
ATOM     14  O   UNL     1     103.955  95.542  47.881  1.00  0.00    -0.388 OA
ATOM     15  H   UNL     1     103.724  96.291  48.457  1.00  0.00     0.211 HD
ENDBRANCH  13  14
BRANCH  13  16
ATOM     16  C   UNL     1     101.625  95.762  47.130  1.00  0.00     0.190 C 
BRANCH  16  17
ATOM     17  O   UNL     1     101.649  95.877  45.705  1.00  0.00    -0.394 OA
ATOM     18  H   UNL     1     102.011  95.037  45.369  1.00  0.00     0.210 HD
ENDBRANCH  16  17
ENDBRANCH  13  16
ENDBRANCH  10  13
ENDBRANCH   1  10
TORSDOF 11
