MODEL 1
REMARK VINA RESULT:    -5.154      0.000      0.000
REMARK INTER + INTRA:          -8.177
REMARK INTER:                  -7.564
REMARK INTRA:                  -0.613
REMARK UNBOUND:                -0.613
REMARK SMILES OC[C@H](O)[C@@H](O)[C@H](O)[C@@H](O)CO
REMARK SMILES IDX 5 1 3 2 2 3 1 4 4 6 6 8 7 10 8 11 9 13 10 14 11 16 12 17
REMARK H PARENT 1 5 4 7 6 9 8 12 10 15 12 18
ROOT
ATOM      1  C   UNL     1     104.242  93.671  45.731  1.00  0.00     0.176 C 
ENDROOT
BRANCH   1   2
ATOM      2  C   UNL     1     104.689  92.323  45.138  1.00  0.00     0.171 C 
BRANCH   2   3
ATOM      3  C   UNL     1     105.236  91.392  46.230  1.00  0.00     0.190 C 
BRANCH   3   4
ATOM      4  O   UNL     1     106.571  91.010  45.877  1.00  0.00    -0.394 OA
ATOM      5  H   UNL     1     106.773  91.436  45.024  1.00  0.00     0.210 HD
ENDBRANCH   3   4
ENDBRANCH   2   3
BRANCH   2   6
ATOM      6  O   UNL     1     105.727  92.500  44.159  1.00  0.00    -0.388 OA
ATOM      7  H   UNL     1     106.188  93.325  44.418  1.00  0.00     0.211 HD
ENDBRANCH   2   6
ENDBRANCH   1   2
BRANCH   1   8
ATOM      8  O   UNL     1     104.040  94.624  44.681  1.00  0.00    -0.388 OA
ATOM      9  H   UNL     1     104.928  94.734  44.271  1.00  0.00     0.211 HD
ENDBRANCH   1   8
BRANCH   1  10
ATOM     10  C   UNL     1     103.011  93.605  46.668  1.00  0.00     0.176 C 
BRANCH  10  11
ATOM     11  O   UNL     1     101.859  93.212  45.911  1.00  0.00    -0.388 OA
ATOM     12  H   UNL     1     101.781  93.825  45.149  1.00  0.00     0.211 HD
ENDBRANCH  10  11
BRANCH  10  13
ATOM     13  C   UNL     1     102.749  94.826  47.598  1.00  0.00     0.171 C 
BRANCH  13  14
ATOM     14  O   UNL     1     103.955  95.542  47.881  1.00  0.00    -0.388 OA
ATOM     15  H   UNL     1     103.724  96.291  48.457  1.00  0.00     0.211 HD
ENDBRANCH  13  14
BRANCH  13  16
ATOM     16  C   UNL     1     101.625  95.762  47.130  1.00  0.00     0.190 C 
BRANCH  16  17
ATOM     17  O   UNL     1     101.649  95.877  45.705  1.00  0.00    -0.394 OA
ATOM     18  H   UNL     1     102.011  95.037  45.369  1.00  0.00     0.210 HD
ENDBRANCH  16  17
ENDBRANCH  13  16
ENDBRANCH  10  13
ENDBRANCH   1  10
TORSDOF 11
ENDMDL
MODEL 2
REMARK VINA RESULT:    -5.115      1.988      3.555
REMARK INTER + INTRA:          -8.120
REMARK INTER:                  -8.044
REMARK INTRA:                  -0.075
REMARK UNBOUND:                -0.613
REMARK SMILES OC[C@H](O)[C@@H](O)[C@H](O)[C@@H](O)CO
REMARK SMILES IDX 5 1 3 2 2 3 1 4 4 6 6 8 7 10 8 11 9 13 10 14 11 16 12 17
REMARK H PARENT 1 5 4 7 6 9 8 12 10 15 12 18
ROOT
ATOM      1  C   UNL     1     104.052  93.497  44.971  1.00  0.00     0.176 C 
ENDROOT
BRANCH   1   2
ATOM      2  C   UNL     1     102.542  93.727  44.785  1.00  0.00     0.171 C 
BRANCH   2   3
ATOM      3  C   UNL     1     102.135  93.573  43.312  1.00  0.00     0.190 C 
BRANCH   3   4
ATOM      4  O   UNL     1     101.049  92.641  43.233  1.00  0.00    -0.394 OA
ATOM      5  H   UNL     1     100.294  93.118  42.844  1.00  0.00     0.210 HD
ENDBRANCH   3   4
ENDBRANCH   2   3
BRANCH   2   6
ATOM      6  O   UNL     1     102.157  95.048  45.205  1.00  0.00    -0.388 OA
ATOM      7  H   UNL     1     102.215  95.034  46.183  1.00  0.00     0.211 HD
ENDBRANCH   2   6
ENDBRANCH   1   2
BRANCH   1   8
ATOM      8  O   UNL     1     104.761  94.727  44.780  1.00  0.00    -0.388 OA
ATOM      9  H   UNL     1     104.261  95.387  45.312  1.00  0.00     0.211 HD
ENDBRANCH   1   8
BRANCH   1  10
ATOM     10  C   UNL     1     104.458  92.822  46.303  1.00  0.00     0.176 C 
BRANCH  10  11
ATOM     11  O   UNL     1     104.731  91.434  46.068  1.00  0.00    -0.388 OA
ATOM     12  H   UNL     1     103.869  90.976  45.961  1.00  0.00     0.211 HD
ENDBRANCH  10  11
BRANCH  10  13
ATOM     13  C   UNL     1     103.548  93.069  47.543  1.00  0.00     0.171 C 
BRANCH  13  14
ATOM     14  O   UNL     1     103.715  92.048  48.531  1.00  0.00    -0.388 OA
ATOM     15  H   UNL     1     103.798  92.487  49.395  1.00  0.00     0.211 HD
ENDBRANCH  13  14
BRANCH  13  16
ATOM     16  C   UNL     1     103.657  94.475  48.150  1.00  0.00     0.190 C 
BRANCH  16  17
ATOM     17  O   UNL     1     104.238  94.399  49.454  1.00  0.00    -0.394 OA
ATOM     18  H   UNL     1     104.628  95.275  49.632  1.00  0.00     0.210 HD
ENDBRANCH  16  17
ENDBRANCH  13  16
ENDBRANCH  10  13
ENDBRANCH   1  10
TORSDOF 11
ENDMDL
MODEL 3
REMARK VINA RESULT:    -5.111     19.895     20.981
REMARK INTER + INTRA:          -8.114
REMARK INTER:                  -7.665
REMARK INTRA:                  -0.449
REMARK UNBOUND:                -0.613
REMARK SMILES OC[C@H](O)[C@@H](O)[C@H](O)[C@@H](O)CO
REMARK SMILES IDX 5 1 3 2 2 3 1 4 4 6 6 8 7 10 8 11 9 13 10 14 11 16 12 17
REMARK H PARENT 1 5 4 7 6 9 8 12 10 15 12 18
ROOT
ATOM      1  C   UNL     1      89.543 104.127  56.292  1.00  0.00     0.176 C 
ENDROOT
BRANCH   1   2
ATOM      2  C   UNL     1      88.053 103.990  55.937  1.00  0.00     0.171 C 
BRANCH   2   3
ATOM      3  C   UNL     1      87.484 102.655  56.439  1.00  0.00     0.190 C 
BRANCH   3   4
ATOM      4  O   UNL     1      86.123 102.545  56.003  1.00  0.00    -0.394 OA
ATOM      5  H   UNL     1      86.077 101.778  55.404  1.00  0.00     0.210 HD
ENDBRANCH   3   4
ENDBRANCH   2   3
BRANCH   2   6
ATOM      6  O   UNL     1      87.847 104.041  54.514  1.00  0.00    -0.388 OA
ATOM      7  H   UNL     1      88.143 103.170  54.179  1.00  0.00     0.211 HD
ENDBRANCH   2   6
ENDBRANCH   1   2
BRANCH   1   8
ATOM      8  O   UNL     1      90.309 104.372  55.106  1.00  0.00    -0.388 OA
ATOM      9  H   UNL     1      89.821 105.089  54.640  1.00  0.00     0.211 HD
ENDBRANCH   1   8
BRANCH   1  10
ATOM     10  C   UNL     1      89.868 105.170  57.389  1.00  0.00     0.176 C 
BRANCH  10  11
ATOM     11  O   UNL     1      90.335 106.377  56.774  1.00  0.00    -0.388 OA
ATOM     12  H   UNL     1      89.798 107.118  57.128  1.00  0.00     0.211 HD
ENDBRANCH  10  11
BRANCH  10  13
ATOM     13  C   UNL     1      90.751 104.707  58.585  1.00  0.00     0.171 C 
BRANCH  13  14
ATOM     14  O   UNL     1      90.449 103.363  58.973  1.00  0.00    -0.388 OA
ATOM     15  H   UNL     1      90.799 102.773  58.283  1.00  0.00     0.211 HD
ENDBRANCH  13  14
BRANCH  13  16
ATOM     16  C   UNL     1      92.259 104.921  58.391  1.00  0.00     0.190 C 
BRANCH  16  17
ATOM     17  O   UNL     1      92.580 104.892  56.998  1.00  0.00    -0.394 OA
ATOM     18  H   UNL     1      93.096 105.700  56.819  1.00  0.00     0.210 HD
ENDBRANCH  16  17
ENDBRANCH  13  16
ENDBRANCH  10  13
ENDBRANCH   1  10
TORSDOF 11
ENDMDL
MODEL 4
REMARK VINA RESULT:    -5.047     19.868     20.944
REMARK INTER + INTRA:          -8.019
REMARK INTER:                  -7.833
REMARK INTRA:                  -0.187
REMARK UNBOUND:                -0.613
REMARK SMILES OC[C@H](O)[C@@H](O)[C@H](O)[C@@H](O)CO
REMARK SMILES IDX 5 1 3 2 2 3 1 4 4 6 6 8 7 10 8 11 9 13 10 14 11 16 12 17
REMARK H PARENT 1 5 4 7 6 9 8 12 10 15 12 18
ROOT
ATOM      1  C   UNL     1      89.874 105.200  57.422  1.00  0.00     0.176 C 
ENDROOT
BRANCH   1   2
ATOM      2  C   UNL     1      90.760 104.740  58.592  1.00  0.00     0.171 C 
BRANCH   2   3
ATOM      3  C   UNL     1      92.248 104.799  58.217  1.00  0.00     0.190 C 
BRANCH   3   4
ATOM      4  O   UNL     1      92.953 103.818  58.989  1.00  0.00    -0.394 OA
ATOM      5  H   UNL     1      92.806 104.036  59.927  1.00  0.00     0.210 HD
ENDBRANCH   3   4
ENDBRANCH   2   3
BRANCH   2   6
ATOM      6  O   UNL     1      90.463 103.385  58.973  1.00  0.00    -0.388 OA
ATOM      7  H   UNL     1      90.261 102.920  58.136  1.00  0.00     0.211 HD
ENDBRANCH   2   6
ENDBRANCH   1   2
BRANCH   1   8
ATOM      8  O   UNL     1      90.442 106.361  56.806  1.00  0.00    -0.388 OA
ATOM      9  H   UNL     1      90.171 106.299  55.861  1.00  0.00     0.211 HD
ENDBRANCH   1   8
BRANCH   1  10
ATOM     10  C   UNL     1      89.552 104.112  56.369  1.00  0.00     0.176 C 
BRANCH  10  11
ATOM     11  O   UNL     1      90.400 104.290  55.227  1.00  0.00    -0.388 OA
ATOM     12  H   UNL     1      90.882 103.447  55.082  1.00  0.00     0.211 HD
ENDBRANCH  10  11
BRANCH  10  13
ATOM     13  C   UNL     1      88.056 103.891  55.997  1.00  0.00     0.171 C 
BRANCH  13  14
ATOM     14  O   UNL     1      87.836 104.037  54.591  1.00  0.00    -0.388 OA
ATOM     15  H   UNL     1      87.056 103.503  54.359  1.00  0.00     0.211 HD
ENDBRANCH  13  14
BRANCH  13  16
ATOM     16  C   UNL     1      87.443 102.592  56.539  1.00  0.00     0.190 C 
BRANCH  16  17
ATOM     17  O   UNL     1      86.067 102.508  56.161  1.00  0.00    -0.394 OA
ATOM     18  H   UNL     1      86.036 101.950  55.361  1.00  0.00     0.210 HD
ENDBRANCH  16  17
ENDBRANCH  13  16
ENDBRANCH  10  13
ENDBRANCH   1  10
TORSDOF 11
ENDMDL
MODEL 5
REMARK VINA RESULT:    -4.998      2.033      3.676
REMARK INTER + INTRA:          -7.948
REMARK INTER:                  -7.801
REMARK INTRA:                  -0.147
REMARK UNBOUND:                -0.613
REMARK SMILES OC[C@H](O)[C@@H](O)[C@H](O)[C@@H](O)CO
REMARK SMILES IDX 5 1 3 2 2 3 1 4 4 6 6 8 7 10 8 11 9 13 10 14 11 16 12 17
REMARK H PARENT 1 5 4 7 6 9 8 12 10 15 12 18
ROOT
ATOM      1  C   UNL     1     104.377  92.850  46.215  1.00  0.00     0.176 C 
ENDROOT
BRANCH   1   2
ATOM      2  C   UNL     1     103.499  93.060  47.460  1.00  0.00     0.171 C 
BRANCH   2   3
ATOM      3  C   UNL     1     103.786  94.417  48.119  1.00  0.00     0.190 C 
BRANCH   3   4
ATOM      4  O   UNL     1     103.979  94.211  49.524  1.00  0.00    -0.394 OA
ATOM      5  H   UNL     1     103.424  93.452  49.779  1.00  0.00     0.210 HD
ENDBRANCH   3   4
ENDBRANCH   2   3
BRANCH   2   6
ATOM      6  O   UNL     1     103.736  92.041  48.447  1.00  0.00    -0.388 OA
ATOM      7  H   UNL     1     104.122  91.288  47.952  1.00  0.00     0.211 HD
ENDBRANCH   2   6
ENDBRANCH   1   2
BRANCH   1   8
ATOM      8  O   UNL     1     104.678  91.459  46.057  1.00  0.00    -0.388 OA
ATOM      9  H   UNL     1     104.907  91.360  45.105  1.00  0.00     0.211 HD
ENDBRANCH   1   8
BRANCH   1  10
ATOM     10  C   UNL     1     103.818  93.452  44.903  1.00  0.00     0.176 C 
BRANCH  10  11
ATOM     11  O   UNL     1     104.660  94.533  44.480  1.00  0.00    -0.388 OA
ATOM     12  H   UNL     1     104.514  95.281  45.099  1.00  0.00     0.211 HD
ENDBRANCH  10  11
BRANCH  10  13
ATOM     13  C   UNL     1     102.301  93.799  44.859  1.00  0.00     0.171 C 
BRANCH  13  14
ATOM     14  O   UNL     1     102.060  95.156  45.240  1.00  0.00    -0.388 OA
ATOM     15  H   UNL     1     101.865  95.163  46.194  1.00  0.00     0.211 HD
ENDBRANCH  13  14
BRANCH  13  16
ATOM     16  C   UNL     1     101.597  93.441  43.541  1.00  0.00     0.190 C 
BRANCH  16  17
ATOM     17  O   UNL     1     101.813  92.061  43.234  1.00  0.00    -0.394 OA
ATOM     18  H   UNL     1     102.771  91.961  43.084  1.00  0.00     0.210 HD
ENDBRANCH  16  17
ENDBRANCH  13  16
ENDBRANCH  10  13
ENDBRANCH   1  10
TORSDOF 11
ENDMDL
MODEL 6
REMARK VINA RESULT:    -4.931     16.326     18.744
REMARK INTER + INTRA:          -7.850
REMARK INTER:                  -6.862
REMARK INTRA:                  -0.988
REMARK UNBOUND:                -0.613
REMARK SMILES OC[C@H](O)[C@@H](O)[C@H](O)[C@@H](O)CO
REMARK SMILES IDX 5 1 3 2 2 3 1 4 4 6 6 8 7 10 8 11 9 13 10 14 11 16 12 17
REMARK H PARENT 1 5 4 7 6 9 8 12 10 15 12 18
ROOT
ATOM      1  C   UNL     1      96.596 104.230  59.045  1.00  0.00     0.176 C 
ENDROOT
BRANCH   1   2
ATOM      2  C   UNL     1      98.124 104.096  58.919  1.00  0.00     0.171 C 
BRANCH   2   3
ATOM      3  C   UNL     1      98.535 103.781  57.473  1.00  0.00     0.190 C 
BRANCH   3   4
ATOM      4  O   UNL     1      99.454 104.787  57.030  1.00  0.00    -0.394 OA
ATOM      5  H   UNL     1      99.185 105.040  56.128  1.00  0.00     0.210 HD
ENDBRANCH   3   4
ENDBRANCH   2   3
BRANCH   2   6
ATOM      6  O   UNL     1      98.628 103.038  59.753  1.00  0.00    -0.388 OA
ATOM      7  H   UNL     1      97.956 102.922  60.456  1.00  0.00     0.211 HD
ENDBRANCH   2   6
ENDBRANCH   1   2
BRANCH   1   8
ATOM      8  O   UNL     1      95.963 103.015  58.629  1.00  0.00    -0.388 OA
ATOM      9  H   UNL     1      95.296 103.298  57.962  1.00  0.00     0.211 HD
ENDBRANCH   1   8
BRANCH   1  10
ATOM     10  C   UNL     1      96.085 104.677  60.436  1.00  0.00     0.176 C 
BRANCH  10  11
ATOM     11  O   UNL     1      96.572 103.771  61.435  1.00  0.00    -0.388 OA
ATOM     12  H   UNL     1      97.552 103.770  61.382  1.00  0.00     0.211 HD
ENDBRANCH  10  11
BRANCH  10  13
ATOM     13  C   UNL     1      94.567 104.992  60.578  1.00  0.00     0.171 C 
BRANCH  13  14
ATOM     14  O   UNL     1      93.955 105.220  59.306  1.00  0.00    -0.388 OA
ATOM     15  H   UNL     1      93.009 105.006  59.392  1.00  0.00     0.211 HD
ENDBRANCH  13  14
BRANCH  13  16
ATOM     16  C   UNL     1      93.776 103.980  61.420  1.00  0.00     0.190 C 
BRANCH  16  17
ATOM     17  O   UNL     1      93.934 102.666  60.878  1.00  0.00    -0.394 OA
ATOM     18  H   UNL     1      93.274 102.583  60.165  1.00  0.00     0.210 HD
ENDBRANCH  16  17
ENDBRANCH  13  16
ENDBRANCH  10  13
ENDBRANCH   1  10
TORSDOF 11
ENDMDL
MODEL 7
REMARK VINA RESULT:    -4.918     11.524     14.047
REMARK INTER + INTRA:          -7.831
REMARK INTER:                  -7.322
REMARK INTRA:                  -0.509
REMARK UNBOUND:                -0.613
REMARK SMILES OC[C@H](O)[C@@H](O)[C@H](O)[C@@H](O)CO
REMARK SMILES IDX 5 1 3 2 2 3 1 4 4 6 6 8 7 10 8 11 9 13 10 14 11 16 12 17
REMARK H PARENT 1 5 4 7 6 9 8 12 10 15 12 18
ROOT
ATOM      1  C   UNL     1      98.832 101.943  54.885  1.00  0.00     0.176 C 
ENDROOT
BRANCH   1   2
ATOM      2  C   UNL     1      97.849 101.571  53.762  1.00  0.00     0.171 C 
BRANCH   2   3
ATOM      3  C   UNL     1      98.554 100.787  52.645  1.00  0.00     0.190 C 
BRANCH   3   4
ATOM      4  O   UNL     1      98.597  99.403  53.015  1.00  0.00    -0.394 OA
ATOM      5  H   UNL     1      98.597  98.888  52.188  1.00  0.00     0.210 HD
ENDBRANCH   3   4
ENDBRANCH   2   3
BRANCH   2   6
ATOM      6  O   UNL     1      97.265 102.743  53.167  1.00  0.00    -0.388 OA
ATOM      7  H   UNL     1      97.022 102.476  52.256  1.00  0.00     0.211 HD
ENDBRANCH   2   6
ENDBRANCH   1   2
BRANCH   1   8
ATOM      8  O   UNL     1     100.178 101.707  54.456  1.00  0.00    -0.388 OA
ATOM      9  H   UNL     1     100.421 100.845  54.866  1.00  0.00     0.211 HD
ENDBRANCH   1   8
BRANCH   1  10
ATOM     10  C   UNL     1      98.672 103.373  55.456  1.00  0.00     0.176 C 
BRANCH  10  11
ATOM     11  O   UNL     1      99.413 104.294  54.644  1.00  0.00    -0.388 OA
ATOM     12  H   UNL     1      99.885 103.772  53.960  1.00  0.00     0.211 HD
ENDBRANCH  10  11
BRANCH  10  13
ATOM     13  C   UNL     1      98.910 103.570  56.982  1.00  0.00     0.171 C 
BRANCH  13  14
ATOM     14  O   UNL     1      99.361 104.894  57.279  1.00  0.00    -0.388 OA
ATOM     15  H   UNL     1      98.599 105.493  57.180  1.00  0.00     0.211 HD
ENDBRANCH  13  14
BRANCH  13  16
ATOM     16  C   UNL     1      97.732 103.153  57.876  1.00  0.00     0.190 C 
BRANCH  16  17
ATOM     17  O   UNL     1      98.188 102.941  59.214  1.00  0.00    -0.394 OA
ATOM     18  H   UNL     1      97.671 102.192  59.564  1.00  0.00     0.210 HD
ENDBRANCH  16  17
ENDBRANCH  13  16
ENDBRANCH  10  13
ENDBRANCH   1  10
TORSDOF 11
ENDMDL
MODEL 8
REMARK VINA RESULT:    -4.859     17.386     19.163
REMARK INTER + INTRA:          -7.745
REMARK INTER:                  -6.834
REMARK INTRA:                  -0.911
REMARK UNBOUND:                -0.613
REMARK SMILES OC[C@H](O)[C@@H](O)[C@H](O)[C@@H](O)CO
REMARK SMILES IDX 5 1 3 2 2 3 1 4 4 6 6 8 7 10 8 11 9 13 10 14 11 16 12 17
REMARK H PARENT 1 5 4 7 6 9 8 12 10 15 12 18
ROOT
ATOM      1  C   UNL     1      96.283 104.565  60.376  1.00  0.00     0.176 C 
ENDROOT
BRANCH   1   2
ATOM      2  C   UNL     1      94.909 104.245  59.762  1.00  0.00     0.171 C 
BRANCH   2   3
ATOM      3  C   UNL     1      93.857 104.002  60.854  1.00  0.00     0.190 C 
BRANCH   3   4
ATOM      4  O   UNL     1      93.838 102.603  61.167  1.00  0.00    -0.394 OA
ATOM      5  H   UNL     1      94.636 102.420  61.696  1.00  0.00     0.210 HD
ENDBRANCH   3   4
ENDBRANCH   2   3
BRANCH   2   6
ATOM      6  O   UNL     1      94.964 103.064  58.943  1.00  0.00    -0.388 OA
ATOM      7  H   UNL     1      95.044 103.392  58.023  1.00  0.00     0.211 HD
ENDBRANCH   2   6
ENDBRANCH   1   2
BRANCH   1   8
ATOM      8  O   UNL     1      96.524 103.716  61.504  1.00  0.00    -0.388 OA
ATOM      9  H   UNL     1      95.779 103.072  61.494  1.00  0.00     0.211 HD
ENDBRANCH   1   8
BRANCH   1  10
ATOM     10  C   UNL     1      97.473 104.530  59.387  1.00  0.00     0.176 C 
BRANCH  10  11
ATOM     11  O   UNL     1      97.904 103.174  59.211  1.00  0.00    -0.388 OA
ATOM     12  H   UNL     1      98.821 103.197  58.860  1.00  0.00     0.211 HD
ENDBRANCH  10  11
BRANCH  10  13
ATOM     13  C   UNL     1      98.647 105.521  59.638  1.00  0.00     0.171 C 
BRANCH  13  14
ATOM     14  O   UNL     1      98.567 106.115  60.937  1.00  0.00    -0.388 OA
ATOM     15  H   UNL     1      97.726 105.832  61.337  1.00  0.00     0.211 HD
ENDBRANCH  13  14
BRANCH  13  16
ATOM     16  C   UNL     1     100.044 104.948  59.357  1.00  0.00     0.190 C 
BRANCH  16  17
ATOM     17  O   UNL     1     100.204 104.722  57.955  1.00  0.00    -0.394 OA
ATOM     18  H   UNL     1     100.480 103.791  57.857  1.00  0.00     0.210 HD
ENDBRANCH  16  17
ENDBRANCH  13  16
ENDBRANCH  10  13
ENDBRANCH   1  10
TORSDOF 11
ENDMDL
MODEL 9
REMARK VINA RESULT:    -4.828     17.872     19.483
REMARK INTER + INTRA:          -7.699
REMARK INTER:                  -6.279
REMARK INTRA:                  -1.421
REMARK UNBOUND:                -0.613
REMARK SMILES OC[C@H](O)[C@@H](O)[C@H](O)[C@@H](O)CO
REMARK SMILES IDX 5 1 3 2 2 3 1 4 4 6 6 8 7 10 8 11 9 13 10 14 11 16 12 17
REMARK H PARENT 1 5 4 7 6 9 8 12 10 15 12 18
ROOT
ATOM      1  C   UNL     1      95.193 104.310  59.082  1.00  0.00     0.176 C 
ENDROOT
BRANCH   1   2
ATOM      2  C   UNL     1      96.564 105.009  59.091  1.00  0.00     0.171 C 
BRANCH   2   3
ATOM      3  C   UNL     1      97.708 103.986  59.030  1.00  0.00     0.190 C 
BRANCH   3   4
ATOM      4  O   UNL     1      97.904 103.441  60.341  1.00  0.00    -0.394 OA
ATOM      5  H   UNL     1      98.804 103.066  60.360  1.00  0.00     0.210 HD
ENDBRANCH   3   4
ENDBRANCH   2   3
BRANCH   2   6
ATOM      6  O   UNL     1      96.746 105.790  60.285  1.00  0.00    -0.388 OA
ATOM      7  H   UNL     1      96.542 105.182  61.025  1.00  0.00     0.211 HD
ENDBRANCH   2   6
ENDBRANCH   1   2
BRANCH   1   8
ATOM      8  O   UNL     1      95.332 102.967  58.605  1.00  0.00    -0.388 OA
ATOM      9  H   UNL     1      94.951 102.409  59.320  1.00  0.00     0.211 HD
ENDBRANCH   1   8
BRANCH   1  10
ATOM     10  C   UNL     1      94.423 104.348  60.424  1.00  0.00     0.176 C 
BRANCH  10  11
ATOM     11  O   UNL     1      95.234 103.769  61.454  1.00  0.00    -0.388 OA
ATOM     12  H   UNL     1      95.410 104.467  62.121  1.00  0.00     0.211 HD
ENDBRANCH  10  11
BRANCH  10  13
ATOM     13  C   UNL     1      92.957 103.823  60.427  1.00  0.00     0.171 C 
BRANCH  13  14
ATOM     14  O   UNL     1      92.424 103.741  59.103  1.00  0.00    -0.388 OA
ATOM     15  H   UNL     1      92.125 102.826  58.962  1.00  0.00     0.211 HD
ENDBRANCH  13  14
BRANCH  13  16
ATOM     16  C   UNL     1      92.742 102.521  61.212  1.00  0.00     0.190 C 
BRANCH  16  17
ATOM     17  O   UNL     1      93.461 101.453  60.590  1.00  0.00    -0.394 OA
ATOM     18  H   UNL     1      94.273 101.328  61.115  1.00  0.00     0.210 HD
ENDBRANCH  16  17
ENDBRANCH  13  16
ENDBRANCH  10  13
ENDBRANCH   1  10
TORSDOF 11
ENDMDL
