MODEL 1
REMARK VINA RESULT:    -5.354      0.000      0.000
REMARK INTER + INTRA:          -8.528
REMARK INTER:                  -7.858
REMARK INTRA:                  -0.671
REMARK UNBOUND:                -0.671
REMARK SMILES OC[C@H](O)[C@@H](O)[C@H](O)[C@@H](O)CO
REMARK SMILES IDX 5 1 3 2 2 3 1 4 4 6 6 8 7 10 8 11 9 13 10 14 11 16 12 17
REMARK H PARENT 1 5 4 7 6 9 8 12 10 15 12 18
ROOT
ATOM      1  C   UNL     1     104.279  93.651  45.758  1.00  0.00     0.176 C 
ENDROOT
BRANCH   1   2
ATOM      2  C   UNL     1     104.763  92.288  45.236  1.00  0.00     0.171 C 
BRANCH   2   3
ATOM      3  C   UNL     1     105.229  91.386  46.389  1.00  0.00     0.190 C 
BRANCH   3   4
ATOM      4  O   UNL     1     106.356  90.621  45.943  1.00  0.00    -0.394 OA
ATOM      5  H   UNL     1     106.876  90.393  46.736  1.00  0.00     0.210 HD
ENDBRANCH   3   4
ENDBRANCH   2   3
BRANCH   2   6
ATOM      6  O   UNL     1     105.869  92.437  44.329  1.00  0.00    -0.388 OA
ATOM      7  H   UNL     1     106.656  92.555  44.899  1.00  0.00     0.211 HD
ENDBRANCH   2   6
ENDBRANCH   1   2
BRANCH   1   8
ATOM      8  O   UNL     1     104.153  94.575  44.671  1.00  0.00    -0.388 OA
ATOM      9  H   UNL     1     104.732  94.207  43.965  1.00  0.00     0.211 HD
ENDBRANCH   1   8
BRANCH   1  10
ATOM     10  C   UNL     1     102.985  93.612  46.608  1.00  0.00     0.176 C 
BRANCH  10  11
ATOM     11  O   UNL     1     101.871  93.299  45.762  1.00  0.00    -0.388 OA
ATOM     12  H   UNL     1     101.064  93.301  46.322  1.00  0.00     0.211 HD
ENDBRANCH  10  11
BRANCH  10  13
ATOM     13  C   UNL     1     102.715  94.811  47.564  1.00  0.00     0.171 C 
BRANCH  13  14
ATOM     14  O   UNL     1     103.910  95.549  47.833  1.00  0.00    -0.388 OA
ATOM     15  H   UNL     1     104.131  96.053  47.031  1.00  0.00     0.211 HD
ENDBRANCH  13  14
BRANCH  13  16
ATOM     16  C   UNL     1     101.561  95.729  47.134  1.00  0.00     0.190 C 
BRANCH  16  17
ATOM     17  O   UNL     1     101.679  96.040  45.743  1.00  0.00    -0.394 OA
ATOM     18  H   UNL     1     100.947  96.650  45.536  1.00  0.00     0.210 HD
ENDBRANCH  16  17
ENDBRANCH  13  16
ENDBRANCH  10  13
ENDBRANCH   1  10
TORSDOF 11
ENDMDL
MODEL 2
REMARK VINA RESULT:    -5.094     19.897     21.050
REMARK INTER + INTRA:          -8.146
REMARK INTER:                  -7.945
REMARK INTRA:                  -0.201
REMARK UNBOUND:                -0.671
REMARK SMILES OC[C@H](O)[C@@H](O)[C@H](O)[C@@H](O)CO
REMARK SMILES IDX 5 1 3 2 2 3 1 4 4 6 6 8 7 10 8 11 9 13 10 14 11 16 12 17
REMARK H PARENT 1 5 4 7 6 9 8 12 10 15 12 18
ROOT
ATOM      1  C   UNL     1      89.850 105.195  57.366  1.00  0.00     0.176 C 
ENDROOT
BRANCH   1   2
ATOM      2  C   UNL     1      90.710 104.762  58.566  1.00  0.00     0.171 C 
BRANCH   2   3
ATOM      3  C   UNL     1      92.206 104.818  58.225  1.00  0.00     0.190 C 
BRANCH   3   4
ATOM      4  O   UNL     1      92.926 105.223  59.396  1.00  0.00    -0.394 OA
ATOM      5  H   UNL     1      93.869 105.040  59.227  1.00  0.00     0.210 HD
ENDBRANCH   3   4
ENDBRANCH   2   3
BRANCH   2   6
ATOM      6  O   UNL     1      90.407 103.415  58.968  1.00  0.00    -0.388 OA
ATOM      7  H   UNL     1      90.061 103.490  59.882  1.00  0.00     0.211 HD
ENDBRANCH   2   6
ENDBRANCH   1   2
BRANCH   1   8
ATOM      8  O   UNL     1      90.454 106.316  56.710  1.00  0.00    -0.388 OA
ATOM      9  H   UNL     1      90.080 107.103  57.169  1.00  0.00     0.211 HD
ENDBRANCH   1   8
BRANCH   1  10
ATOM     10  C   UNL     1      89.514 104.072  56.354  1.00  0.00     0.176 C 
BRANCH  10  11
ATOM     11  O   UNL     1      90.348 104.213  55.196  1.00  0.00    -0.388 OA
ATOM     12  H   UNL     1      90.179 103.441  54.614  1.00  0.00     0.211 HD
ENDBRANCH  10  11
BRANCH  10  13
ATOM     13  C   UNL     1      88.014 103.839  56.008  1.00  0.00     0.171 C 
BRANCH  13  14
ATOM     14  O   UNL     1      87.771 103.969  54.605  1.00  0.00    -0.388 OA
ATOM     15  H   UNL     1      88.565 104.363  54.204  1.00  0.00     0.211 HD
ENDBRANCH  13  14
BRANCH  13  16
ATOM     16  C   UNL     1      87.418 102.542  56.574  1.00  0.00     0.190 C 
BRANCH  16  17
ATOM     17  O   UNL     1      86.057 102.409  56.155  1.00  0.00    -0.394 OA
ATOM     18  H   UNL     1      85.997 102.838  55.281  1.00  0.00     0.210 HD
ENDBRANCH  16  17
ENDBRANCH  13  16
ENDBRANCH  10  13
ENDBRANCH   1  10
TORSDOF 11
ENDMDL
MODEL 3
REMARK VINA RESULT:    -5.093      1.434      4.959
REMARK INTER + INTRA:          -8.146
REMARK INTER:                  -7.603
REMARK INTRA:                  -0.543
REMARK UNBOUND:                -0.671
REMARK SMILES OC[C@H](O)[C@@H](O)[C@H](O)[C@@H](O)CO
REMARK SMILES IDX 5 1 3 2 2 3 1 4 4 6 6 8 7 10 8 11 9 13 10 14 11 16 12 17
REMARK H PARENT 1 5 4 7 6 9 8 12 10 15 12 18
ROOT
ATOM      1  C   UNL     1     102.524  94.366  47.028  1.00  0.00     0.176 C 
ENDROOT
BRANCH   1   2
ATOM      2  C   UNL     1     102.069  95.751  46.536  1.00  0.00     0.171 C 
BRANCH   2   3
ATOM      3  C   UNL     1     100.875  96.264  47.354  1.00  0.00     0.190 C 
BRANCH   3   4
ATOM      4  O   UNL     1     100.315  97.400  46.681  1.00  0.00    -0.394 OA
ATOM      5  H   UNL     1      99.993  98.008  47.371  1.00  0.00     0.210 HD
ENDBRANCH   3   4
ENDBRANCH   2   3
BRANCH   2   6
ATOM      6  O   UNL     1     101.665  95.711  45.157  1.00  0.00    -0.388 OA
ATOM      7  H   UNL     1     100.690  95.617  45.176  1.00  0.00     0.211 HD
ENDBRANCH   2   6
ENDBRANCH   1   2
BRANCH   1   8
ATOM      8  O   UNL     1     101.696  93.347  46.453  1.00  0.00    -0.388 OA
ATOM      9  H   UNL     1     101.322  93.760  45.641  1.00  0.00     0.211 HD
ENDBRANCH   1   8
BRANCH   1  10
ATOM     10  C   UNL     1     104.024  94.049  46.816  1.00  0.00     0.176 C 
BRANCH  10  11
ATOM     11  O   UNL     1     104.392  94.374  45.469  1.00  0.00    -0.388 OA
ATOM     12  H   UNL     1     105.027  93.691  45.163  1.00  0.00     0.211 HD
ENDBRANCH  10  11
BRANCH  10  13
ATOM     13  C   UNL     1     104.537  92.652  47.275  1.00  0.00     0.171 C 
BRANCH  13  14
ATOM     14  O   UNL     1     103.725  92.111  48.321  1.00  0.00    -0.388 OA
ATOM     15  H   UNL     1     102.796  92.195  48.045  1.00  0.00     0.211 HD
ENDBRANCH  13  14
BRANCH  13  16
ATOM     16  C   UNL     1     104.754  91.642  46.139  1.00  0.00     0.190 C 
BRANCH  16  17
ATOM     17  O   UNL     1     105.870  90.801  46.443  1.00  0.00    -0.394 OA
ATOM     18  H   UNL     1     106.286  90.579  45.589  1.00  0.00     0.210 HD
ENDBRANCH  16  17
ENDBRANCH  13  16
ENDBRANCH  10  13
ENDBRANCH   1  10
TORSDOF 11
ENDMDL
MODEL 4
REMARK VINA RESULT:    -5.082     19.802     21.011
REMARK INTER + INTRA:          -8.129
REMARK INTER:                  -7.691
REMARK INTRA:                  -0.438
REMARK UNBOUND:                -0.671
REMARK SMILES OC[C@H](O)[C@@H](O)[C@H](O)[C@@H](O)CO
REMARK SMILES IDX 5 1 3 2 2 3 1 4 4 6 6 8 7 10 8 11 9 13 10 14 11 16 12 17
REMARK H PARENT 1 5 4 7 6 9 8 12 10 15 12 18
ROOT
ATOM      1  C   UNL     1      89.604 104.120  56.374  1.00  0.00     0.176 C 
ENDROOT
BRANCH   1   2
ATOM      2  C   UNL     1      88.131 103.976  55.954  1.00  0.00     0.171 C 
BRANCH   2   3
ATOM      3  C   UNL     1      87.534 102.659  56.471  1.00  0.00     0.190 C 
BRANCH   3   4
ATOM      4  O   UNL     1      86.169 102.576  56.041  1.00  0.00    -0.394 OA
ATOM      5  H   UNL     1      85.627 102.446  56.840  1.00  0.00     0.210 HD
ENDBRANCH   3   4
ENDBRANCH   2   3
BRANCH   2   6
ATOM      6  O   UNL     1      87.991 103.983  54.523  1.00  0.00    -0.388 OA
ATOM      7  H   UNL     1      87.096 103.626  54.350  1.00  0.00     0.211 HD
ENDBRANCH   2   6
ENDBRANCH   1   2
BRANCH   1   8
ATOM      8  O   UNL     1      90.404 104.473  55.239  1.00  0.00    -0.388 OA
ATOM      9  H   UNL     1      89.753 104.653  54.523  1.00  0.00     0.211 HD
ENDBRANCH   1   8
BRANCH   1  10
ATOM     10  C   UNL     1      89.863 105.083  57.558  1.00  0.00     0.176 C 
BRANCH  10  11
ATOM     11  O   UNL     1      90.062 106.411  57.056  1.00  0.00    -0.388 OA
ATOM     12  H   UNL     1      90.606 106.897  57.712  1.00  0.00     0.211 HD
ENDBRANCH  10  11
BRANCH  10  13
ATOM     13  C   UNL     1      90.926 104.657  58.613  1.00  0.00     0.171 C 
BRANCH  13  14
ATOM     14  O   UNL     1      90.545 103.458  59.291  1.00  0.00    -0.388 OA
ATOM     15  H   UNL     1      91.247 103.245  59.930  1.00  0.00     0.211 HD
ENDBRANCH  13  14
BRANCH  13  16
ATOM     16  C   UNL     1      92.365 104.579  58.080  1.00  0.00     0.190 C 
BRANCH  16  17
ATOM     17  O   UNL     1      92.619 105.679  57.202  1.00  0.00    -0.394 OA
ATOM     18  H   UNL     1      93.459 105.480  56.749  1.00  0.00     0.210 HD
ENDBRANCH  16  17
ENDBRANCH  13  16
ENDBRANCH  10  13
ENDBRANCH   1  10
TORSDOF 11
ENDMDL
MODEL 5
REMARK VINA RESULT:    -5.080     27.945     28.576
REMARK INTER + INTRA:          -8.126
REMARK INTER:                  -6.926
REMARK INTRA:                  -1.200
REMARK UNBOUND:                -0.671
REMARK SMILES OC[C@H](O)[C@@H](O)[C@H](O)[C@@H](O)CO
REMARK SMILES IDX 5 1 3 2 2 3 1 4 4 6 6 8 7 10 8 11 9 13 10 14 11 16 12 17
REMARK H PARENT 1 5 4 7 6 9 8 12 10 15 12 18
ROOT
ATOM      1  C   UNL     1     105.547 112.185  67.843  1.00  0.00     0.176 C 
ENDROOT
BRANCH   1   2
ATOM      2  C   UNL     1     106.680 111.718  68.774  1.00  0.00     0.171 C 
BRANCH   2   3
ATOM      3  C   UNL     1     107.980 111.484  67.990  1.00  0.00     0.190 C 
BRANCH   3   4
ATOM      4  O   UNL     1     107.933 110.174  67.409  1.00  0.00    -0.394 OA
ATOM      5  H   UNL     1     107.554 110.273  66.516  1.00  0.00     0.210 HD
ENDBRANCH   3   4
ENDBRANCH   2   3
BRANCH   2   6
ATOM      6  O   UNL     1     106.343 110.485  69.432  1.00  0.00    -0.388 OA
ATOM      7  H   UNL     1     106.937 110.437  70.209  1.00  0.00     0.211 HD
ENDBRANCH   2   6
ENDBRANCH   1   2
BRANCH   1   8
ATOM      8  O   UNL     1     105.200 111.136  66.932  1.00  0.00    -0.388 OA
ATOM      9  H   UNL     1     104.403 111.470  66.460  1.00  0.00     0.211 HD
ENDBRANCH   1   8
BRANCH   1  10
ATOM     10  C   UNL     1     104.292 112.741  68.557  1.00  0.00     0.176 C 
BRANCH  10  11
ATOM     11  O   UNL     1     103.758 111.737  69.430  1.00  0.00    -0.388 OA
ATOM     12  H   UNL     1     104.469 111.479  70.055  1.00  0.00     0.211 HD
ENDBRANCH  10  11
BRANCH  10  13
ATOM     13  C   UNL     1     103.208 113.430  67.676  1.00  0.00     0.171 C 
BRANCH  13  14
ATOM     14  O   UNL     1     103.720 113.777  66.387  1.00  0.00    -0.388 OA
ATOM     15  H   UNL     1     104.654 114.027  66.499  1.00  0.00     0.211 HD
ENDBRANCH  13  14
BRANCH  13  16
ATOM     16  C   UNL     1     101.879 112.668  67.578  1.00  0.00     0.190 C 
BRANCH  16  17
ATOM     17  O   UNL     1     102.124 111.310  67.202  1.00  0.00    -0.394 OA
ATOM     18  H   UNL     1     102.524 110.879  67.980  1.00  0.00     0.210 HD
ENDBRANCH  16  17
ENDBRANCH  13  16
ENDBRANCH  10  13
ENDBRANCH   1  10
TORSDOF 11
ENDMDL
MODEL 6
REMARK VINA RESULT:    -4.871     11.459     13.987
REMARK INTER + INTRA:          -7.820
REMARK INTER:                  -7.325
REMARK INTRA:                  -0.495
REMARK UNBOUND:                -0.671
REMARK SMILES OC[C@H](O)[C@@H](O)[C@H](O)[C@@H](O)CO
REMARK SMILES IDX 5 1 3 2 2 3 1 4 4 6 6 8 7 10 8 11 9 13 10 14 11 16 12 17
REMARK H PARENT 1 5 4 7 6 9 8 12 10 15 12 18
ROOT
ATOM      1  C   UNL     1      98.870 101.888  54.862  1.00  0.00     0.176 C 
ENDROOT
BRANCH   1   2
ATOM      2  C   UNL     1      97.897 101.492  53.738  1.00  0.00     0.171 C 
BRANCH   2   3
ATOM      3  C   UNL     1      98.612 100.687  52.644  1.00  0.00     0.190 C 
BRANCH   3   4
ATOM      4  O   UNL     1      98.624  99.306  53.028  1.00  0.00    -0.394 OA
ATOM      5  H   UNL     1      99.436  98.915  52.656  1.00  0.00     0.210 HD
ENDBRANCH   3   4
ENDBRANCH   2   3
BRANCH   2   6
ATOM      6  O   UNL     1      97.318 102.652  53.114  1.00  0.00    -0.388 OA
ATOM      7  H   UNL     1      96.446 102.768  53.545  1.00  0.00     0.211 HD
ENDBRANCH   2   6
ENDBRANCH   1   2
BRANCH   1   8
ATOM      8  O   UNL     1     100.220 101.668  54.440  1.00  0.00    -0.388 OA
ATOM      9  H   UNL     1     100.219 100.755  54.070  1.00  0.00     0.211 HD
ENDBRANCH   1   8
BRANCH   1  10
ATOM     10  C   UNL     1      98.687 103.320  55.421  1.00  0.00     0.176 C 
BRANCH  10  11
ATOM     11  O   UNL     1      99.423 104.244  54.608  1.00  0.00    -0.388 OA
ATOM     12  H   UNL     1     100.263 104.445  55.074  1.00  0.00     0.211 HD
ENDBRANCH  10  11
BRANCH  10  13
ATOM     13  C   UNL     1      98.909 103.531  56.948  1.00  0.00     0.171 C 
BRANCH  13  14
ATOM     14  O   UNL     1      99.328 104.867  57.240  1.00  0.00    -0.388 OA
ATOM     15  H   UNL     1     100.287 104.845  57.401  1.00  0.00     0.211 HD
ENDBRANCH  13  14
BRANCH  13  16
ATOM     16  C   UNL     1      97.734 103.093  57.835  1.00  0.00     0.190 C 
BRANCH  16  17
ATOM     17  O   UNL     1      98.180 102.915  59.181  1.00  0.00    -0.394 OA
ATOM     18  H   UNL     1      97.702 103.574  59.718  1.00  0.00     0.210 HD
ENDBRANCH  16  17
ENDBRANCH  13  16
ENDBRANCH  10  13
ENDBRANCH   1  10
TORSDOF 11
ENDMDL
MODEL 7
REMARK VINA RESULT:    -4.862     16.460     18.691
REMARK INTER + INTRA:          -7.806
REMARK INTER:                  -6.648
REMARK INTRA:                  -1.158
REMARK UNBOUND:                -0.671
REMARK SMILES OC[C@H](O)[C@@H](O)[C@H](O)[C@@H](O)CO
REMARK SMILES IDX 5 1 3 2 2 3 1 4 4 6 6 8 7 10 8 11 9 13 10 14 11 16 12 17
REMARK H PARENT 1 5 4 7 6 9 8 12 10 15 12 18
ROOT
ATOM      1  C   UNL     1      96.917 104.465  59.267  1.00  0.00     0.176 C 
ENDROOT
BRANCH   1   2
ATOM      2  C   UNL     1      98.445 104.446  59.448  1.00  0.00     0.171 C 
BRANCH   2   3
ATOM      3  C   UNL     1      99.165 104.612  58.102  1.00  0.00     0.190 C 
BRANCH   3   4
ATOM      4  O   UNL     1      99.477 103.310  57.588  1.00  0.00    -0.394 OA
ATOM      5  H   UNL     1      98.660 102.782  57.637  1.00  0.00     0.210 HD
ENDBRANCH   3   4
ENDBRANCH   2   3
BRANCH   2   6
ATOM      6  O   UNL     1      98.888 103.207  60.027  1.00  0.00    -0.388 OA
ATOM      7  H   UNL     1      98.084 102.797  60.406  1.00  0.00     0.211 HD
ENDBRANCH   2   6
ENDBRANCH   1   2
BRANCH   1   8
ATOM      8  O   UNL     1      96.493 103.288  58.570  1.00  0.00    -0.388 OA
ATOM      9  H   UNL     1      96.715 102.546  59.177  1.00  0.00     0.211 HD
ENDBRANCH   1   8
BRANCH   1  10
ATOM     10  C   UNL     1      96.100 104.668  60.566  1.00  0.00     0.176 C 
BRANCH  10  11
ATOM     11  O   UNL     1      96.473 103.668  61.523  1.00  0.00    -0.388 OA
ATOM     12  H   UNL     1      97.158 104.059  62.108  1.00  0.00     0.211 HD
ENDBRANCH  10  11
BRANCH  10  13
ATOM     13  C   UNL     1      94.559 104.843  60.427  1.00  0.00     0.171 C 
BRANCH  13  14
ATOM     14  O   UNL     1      94.192 105.257  59.108  1.00  0.00    -0.388 OA
ATOM     15  H   UNL     1      94.991 105.609  58.678  1.00  0.00     0.211 HD
ENDBRANCH  13  14
BRANCH  13  16
ATOM     16  C   UNL     1      93.730 103.640  60.900  1.00  0.00     0.190 C 
BRANCH  16  17
ATOM     17  O   UNL     1      93.947 102.527  60.029  1.00  0.00    -0.394 OA
ATOM     18  H   UNL     1      94.755 102.083  60.347  1.00  0.00     0.210 HD
ENDBRANCH  16  17
ENDBRANCH  13  16
ENDBRANCH  10  13
ENDBRANCH   1  10
TORSDOF 11
ENDMDL
MODEL 8
REMARK VINA RESULT:    -4.816     17.447     19.136
REMARK INTER + INTRA:          -7.739
REMARK INTER:                  -6.818
REMARK INTRA:                  -0.920
REMARK UNBOUND:                -0.671
REMARK SMILES OC[C@H](O)[C@@H](O)[C@H](O)[C@@H](O)CO
REMARK SMILES IDX 5 1 3 2 2 3 1 4 4 6 6 8 7 10 8 11 9 13 10 14 11 16 12 17
REMARK H PARENT 1 5 4 7 6 9 8 12 10 15 12 18
ROOT
ATOM      1  C   UNL     1      96.307 104.560  60.350  1.00  0.00     0.176 C 
ENDROOT
BRANCH   1   2
ATOM      2  C   UNL     1      94.959 104.208  59.698  1.00  0.00     0.171 C 
BRANCH   2   3
ATOM      3  C   UNL     1      93.881 103.945  60.760  1.00  0.00     0.190 C 
BRANCH   3   4
ATOM      4  O   UNL     1      93.829 102.537  61.020  1.00  0.00    -0.394 OA
ATOM      5  H   UNL     1      93.162 102.401  61.717  1.00  0.00     0.210 HD
ENDBRANCH   3   4
ENDBRANCH   2   3
BRANCH   2   6
ATOM      6  O   UNL     1      95.063 103.026  58.886  1.00  0.00    -0.388 OA
ATOM      7  H   UNL     1      94.224 102.984  58.382  1.00  0.00     0.211 HD
ENDBRANCH   2   6
ENDBRANCH   1   2
BRANCH   1   8
ATOM      8  O   UNL     1      96.527 103.731  61.497  1.00  0.00    -0.388 OA
ATOM      9  H   UNL     1      95.729 103.157  61.545  1.00  0.00     0.211 HD
ENDBRANCH   1   8
BRANCH   1  10
ATOM     10  C   UNL     1      97.528 104.533  59.399  1.00  0.00     0.176 C 
BRANCH  10  11
ATOM     11  O   UNL     1      97.978 103.180  59.243  1.00  0.00    -0.388 OA
ATOM     12  H   UNL     1      98.950 103.204  59.114  1.00  0.00     0.211 HD
ENDBRANCH  10  11
BRANCH  10  13
ATOM     13  C   UNL     1      98.684 105.537  59.683  1.00  0.00     0.171 C 
BRANCH  13  14
ATOM     14  O   UNL     1      98.566 106.123  60.982  1.00  0.00    -0.388 OA
ATOM     15  H   UNL     1      98.966 105.506  61.620  1.00  0.00     0.211 HD
ENDBRANCH  13  14
BRANCH  13  16
ATOM     16  C   UNL     1     100.094 104.982  59.432  1.00  0.00     0.190 C 
BRANCH  16  17
ATOM     17  O   UNL     1     100.269 104.712  58.039  1.00  0.00    -0.394 OA
ATOM     18  H   UNL     1      99.971 105.510  57.565  1.00  0.00     0.210 HD
ENDBRANCH  16  17
ENDBRANCH  13  16
ENDBRANCH  10  13
ENDBRANCH   1  10
TORSDOF 11
ENDMDL
MODEL 9
REMARK VINA RESULT:    -4.796     18.593     20.102
REMARK INTER + INTRA:          -7.710
REMARK INTER:                  -6.336
REMARK INTRA:                  -1.374
REMARK UNBOUND:                -0.671
REMARK SMILES OC[C@H](O)[C@@H](O)[C@H](O)[C@@H](O)CO
REMARK SMILES IDX 5 1 3 2 2 3 1 4 4 6 6 8 7 10 8 11 9 13 10 14 11 16 12 17
REMARK H PARENT 1 5 4 7 6 9 8 12 10 15 12 18
ROOT
ATOM      1  C   UNL     1      94.247 104.264  59.367  1.00  0.00     0.176 C 
ENDROOT
BRANCH   1   2
ATOM      2  C   UNL     1      95.409 105.271  59.309  1.00  0.00     0.171 C 
BRANCH   2   3
ATOM      3  C   UNL     1      96.766 104.553  59.313  1.00  0.00     0.190 C 
BRANCH   3   4
ATOM      4  O   UNL     1      96.991 104.009  60.620  1.00  0.00    -0.394 OA
ATOM      5  H   UNL     1      97.634 104.591  61.063  1.00  0.00     0.210 HD
ENDBRANCH   3   4
ENDBRANCH   2   3
BRANCH   2   6
ATOM      6  O   UNL     1      95.386 106.162  60.437  1.00  0.00    -0.388 OA
ATOM      7  H   UNL     1      94.799 106.900  60.171  1.00  0.00     0.211 HD
ENDBRANCH   2   6
ENDBRANCH   1   2
BRANCH   1   8
ATOM      8  O   UNL     1      94.707 102.964  58.978  1.00  0.00    -0.388 OA
ATOM      9  H   UNL     1      94.644 102.962  57.996  1.00  0.00     0.211 HD
ENDBRANCH   1   8
BRANCH   1  10
ATOM     10  C   UNL     1      93.490 104.206  60.716  1.00  0.00     0.176 C 
BRANCH  10  11
ATOM     11  O   UNL     1      94.424 103.965  61.776  1.00  0.00    -0.388 OA
ATOM     12  H   UNL     1      93.926 103.987  62.621  1.00  0.00     0.211 HD
ENDBRANCH  10  11
BRANCH  10  13
ATOM     13  C   UNL     1      92.225 103.302  60.793  1.00  0.00     0.171 C 
BRANCH  13  14
ATOM     14  O   UNL     1      91.635 103.109  59.504  1.00  0.00    -0.388 OA
ATOM     15  H   UNL     1      90.736 103.480  59.534  1.00  0.00     0.211 HD
ENDBRANCH  13  14
BRANCH  13  16
ATOM     16  C   UNL     1      92.429 101.971  61.532  1.00  0.00     0.190 C 
BRANCH  16  17
ATOM     17  O   UNL     1      93.312 101.130  60.785  1.00  0.00    -0.394 OA
ATOM     18  H   UNL     1      93.841 100.638  61.440  1.00  0.00     0.210 HD
ENDBRANCH  16  17
ENDBRANCH  13  16
ENDBRANCH  10  13
ENDBRANCH   1  10
TORSDOF 11
ENDMDL
