MODEL 1
REMARK VINA RESULT:    -5.354      0.000      0.000
REMARK INTER + INTRA:          -8.528
REMARK INTER:                  -7.858
REMARK INTRA:                  -0.671
REMARK UNBOUND:                -0.671
REMARK SMILES OC[C@H](O)[C@@H](O)[C@H](O)[C@@H](O)CO
REMARK SMILES IDX 5 1 3 2 2 3 1 4 4 6 6 8 7 10 8 11 9 13 10 14 11 16 12 17
REMARK H PARENT 1 5 4 7 6 9 8 12 10 15 12 18
ROOT
ATOM      1  C   UNL     1     104.279  93.651  45.758  1.00  0.00     0.176 C 
ENDROOT
BRANCH   1   2
ATOM      2  C   UNL     1     104.763  92.288  45.236  1.00  0.00     0.171 C 
BRANCH   2   3
ATOM      3  C   UNL     1     105.229  91.386  46.389  1.00  0.00     0.190 C 
BRANCH   3   4
ATOM      4  O   UNL     1     106.356  90.621  45.943  1.00  0.00    -0.394 OA
ATOM      5  H   UNL     1     106.876  90.393  46.736  1.00  0.00     0.210 HD
ENDBRANCH   3   4
ENDBRANCH   2   3
BRANCH   2   6
ATOM      6  O   UNL     1     105.869  92.437  44.329  1.00  0.00    -0.388 OA
ATOM      7  H   UNL     1     106.656  92.555  44.899  1.00  0.00     0.211 HD
ENDBRANCH   2   6
ENDBRANCH   1   2
BRANCH   1   8
ATOM      8  O   UNL     1     104.153  94.575  44.671  1.00  0.00    -0.388 OA
ATOM      9  H   UNL     1     104.732  94.207  43.965  1.00  0.00     0.211 HD
ENDBRANCH   1   8
BRANCH   1  10
ATOM     10  C   UNL     1     102.985  93.612  46.608  1.00  0.00     0.176 C 
BRANCH  10  11
ATOM     11  O   UNL     1     101.871  93.299  45.762  1.00  0.00    -0.388 OA
ATOM     12  H   UNL     1     101.064  93.301  46.322  1.00  0.00     0.211 HD
ENDBRANCH  10  11
BRANCH  10  13
ATOM     13  C   UNL     1     102.715  94.811  47.564  1.00  0.00     0.171 C 
BRANCH  13  14
ATOM     14  O   UNL     1     103.910  95.549  47.833  1.00  0.00    -0.388 OA
ATOM     15  H   UNL     1     104.131  96.053  47.031  1.00  0.00     0.211 HD
ENDBRANCH  13  14
BRANCH  13  16
ATOM     16  C   UNL     1     101.561  95.729  47.134  1.00  0.00     0.190 C 
BRANCH  16  17
ATOM     17  O   UNL     1     101.679  96.040  45.743  1.00  0.00    -0.394 OA
ATOM     18  H   UNL     1     100.947  96.650  45.536  1.00  0.00     0.210 HD
ENDBRANCH  16  17
ENDBRANCH  13  16
ENDBRANCH  10  13
ENDBRANCH   1  10
TORSDOF 11
ENDMDL
