MODEL 1
REMARK VINA RESULT:    -5.229      0.000      0.000
REMARK INTER + INTRA:          -8.114
REMARK INTER:                  -7.675
REMARK INTRA:                  -0.439
REMARK UNBOUND:                -0.439
REMARK SMILES OC[C@H](O)[C@@H](O)[C@H](O)[C@@H](O)CO
REMARK SMILES IDX 5 1 3 2 2 3 1 4 4 6 6 8 7 10 8 11 9 13 10 14 11 16 12 17
REMARK H PARENT 1 5 4 7 6 9 8 12 10 15 12 18
ROOT
ATOM      1  C   UNL     1      89.517 104.069  56.352  1.00  0.00     0.176 C 
ENDROOT
BRANCH   1   2
ATOM      2  C   UNL     1      88.024 103.906  56.018  1.00  0.00     0.171 C 
BRANCH   2   3
ATOM      3  C   UNL     1      87.484 102.565  56.535  1.00  0.00     0.190 C 
BRANCH   3   4
ATOM      4  O   UNL     1      86.107 102.449  56.152  1.00  0.00    -0.394 OA
ATOM      5  H   UNL     1      86.001 102.948  55.322  1.00  0.00     0.210 HD
ENDBRANCH   3   4
ENDBRANCH   2   3
BRANCH   2   6
ATOM      6  O   UNL     1      87.797 103.946  54.599  1.00  0.00    -0.388 OA
ATOM      7  H   UNL     1      86.823 103.948  54.494  1.00  0.00     0.211 HD
ENDBRANCH   2   6
ENDBRANCH   1   2
BRANCH   1   8
ATOM      8  O   UNL     1      90.263 104.303  55.152  1.00  0.00    -0.388 OA
ATOM      9  H   UNL     1      90.331 103.419  54.725  1.00  0.00     0.211 HD
ENDBRANCH   1   8
BRANCH   1  10
ATOM     10  C   UNL     1      89.842 105.134  57.427  1.00  0.00     0.176 C 
BRANCH  10  11
ATOM     11  O   UNL     1      90.269 106.342  56.785  1.00  0.00    -0.388 OA
ATOM     12  H   UNL     1      90.804 106.088  56.001  1.00  0.00     0.211 HD
ENDBRANCH  10  11
BRANCH  10  13
ATOM     13  C   UNL     1      90.762 104.706  58.609  1.00  0.00     0.171 C 
BRANCH  13  14
ATOM     14  O   UNL     1      90.483 103.370  59.036  1.00  0.00    -0.388 OA
ATOM     15  H   UNL     1      89.669 103.395  59.568  1.00  0.00     0.211 HD
ENDBRANCH  13  14
BRANCH  13  16
ATOM     16  C   UNL     1      92.262 104.929  58.369  1.00  0.00     0.190 C 
BRANCH  16  17
ATOM     17  O   UNL     1      92.542 104.893  56.968  1.00  0.00    -0.394 OA
ATOM     18  H   UNL     1      91.763 104.489  56.543  1.00  0.00     0.210 HD
ENDBRANCH  16  17
ENDBRANCH  13  16
ENDBRANCH  10  13
ENDBRANCH   1  10
TORSDOF 11
ENDMDL
MODEL 2
REMARK VINA RESULT:    -5.213      1.513      1.993
REMARK INTER + INTRA:          -8.090
REMARK INTER:                  -7.378
REMARK INTRA:                  -0.712
REMARK UNBOUND:                -0.439
REMARK SMILES OC[C@H](O)[C@@H](O)[C@H](O)[C@@H](O)CO
REMARK SMILES IDX 5 1 3 2 2 3 1 4 4 6 6 8 7 10 8 11 9 13 10 14 11 16 12 17
REMARK H PARENT 1 5 4 7 6 9 8 12 10 15 12 18
ROOT
ATOM      1  C   UNL     1      90.238 104.371  55.654  1.00  0.00     0.176 C 
ENDROOT
BRANCH   1   2
ATOM      2  C   UNL     1      88.993 104.114  54.787  1.00  0.00     0.171 C 
BRANCH   2   3
ATOM      3  C   UNL     1      89.324 104.232  53.292  1.00  0.00     0.190 C 
BRANCH   3   4
ATOM      4  O   UNL     1      89.378 102.915  52.731  1.00  0.00    -0.394 OA
ATOM      5  H   UNL     1      90.261 102.555  52.934  1.00  0.00     0.210 HD
ENDBRANCH   3   4
ENDBRANCH   2   3
BRANCH   2   6
ATOM      6  O   UNL     1      87.950 105.061  55.076  1.00  0.00    -0.388 OA
ATOM      7  H   UNL     1      88.368 105.942  54.984  1.00  0.00     0.211 HD
ENDBRANCH   2   6
ENDBRANCH   1   2
BRANCH   1   8
ATOM      8  O   UNL     1      91.254 105.010  54.873  1.00  0.00    -0.388 OA
ATOM      9  H   UNL     1      91.126 104.659  53.962  1.00  0.00     0.211 HD
ENDBRANCH   1   8
BRANCH   1  10
ATOM     10  C   UNL     1      89.979 105.142  56.970  1.00  0.00     0.176 C 
BRANCH  10  11
ATOM     11  O   UNL     1      90.140 106.547  56.737  1.00  0.00    -0.388 OA
ATOM     12  H   UNL     1      90.584 106.930  57.524  1.00  0.00     0.211 HD
ENDBRANCH  10  11
BRANCH  10  13
ATOM     13  C   UNL     1      90.709 104.643  58.252  1.00  0.00     0.171 C 
BRANCH  13  14
ATOM     14  O   UNL     1      90.176 103.398  58.711  1.00  0.00    -0.388 OA
ATOM     15  H   UNL     1      89.636 103.026  57.992  1.00  0.00     0.211 HD
ENDBRANCH  13  14
BRANCH  13  16
ATOM     16  C   UNL     1      92.241 104.605  58.146  1.00  0.00     0.190 C 
BRANCH  16  17
ATOM     17  O   UNL     1      92.707 105.738  57.408  1.00  0.00    -0.394 OA
ATOM     18  H   UNL     1      91.916 106.151  57.013  1.00  0.00     0.210 HD
ENDBRANCH  16  17
ENDBRANCH  13  16
ENDBRANCH  10  13
ENDBRANCH   1  10
TORSDOF 11
ENDMDL
MODEL 3
REMARK VINA RESULT:    -5.162      0.678      4.738
REMARK INTER + INTRA:          -8.015
REMARK INTER:                  -7.831
REMARK INTRA:                  -0.184
REMARK UNBOUND:                -0.439
REMARK SMILES OC[C@H](O)[C@@H](O)[C@H](O)[C@@H](O)CO
REMARK SMILES IDX 5 1 3 2 2 3 1 4 4 6 6 8 7 10 8 11 9 13 10 14 11 16 12 17
REMARK H PARENT 1 5 4 7 6 9 8 12 10 15 12 18
ROOT
ATOM      1  C   UNL     1      89.824 105.196  57.351  1.00  0.00     0.176 C 
ENDROOT
BRANCH   1   2
ATOM      2  C   UNL     1      90.729 104.731  58.505  1.00  0.00     0.171 C 
BRANCH   2   3
ATOM      3  C   UNL     1      92.205 104.721  58.082  1.00  0.00     0.190 C 
BRANCH   3   4
ATOM      4  O   UNL     1      92.943 103.924  59.018  1.00  0.00    -0.394 OA
ATOM      5  H   UNL     1      92.418 103.120  59.183  1.00  0.00     0.210 HD
ENDBRANCH   3   4
ENDBRANCH   2   3
BRANCH   2   6
ATOM      6  O   UNL     1      90.392 103.400  58.932  1.00  0.00    -0.388 OA
ATOM      7  H   UNL     1      90.862 103.275  59.782  1.00  0.00     0.211 HD
ENDBRANCH   2   6
ENDBRANCH   1   2
BRANCH   1   8
ATOM      8  O   UNL     1      90.374 106.369  56.741  1.00  0.00    -0.388 OA
ATOM      9  H   UNL     1      90.210 107.088  57.393  1.00  0.00     0.211 HD
ENDBRANCH   1   8
BRANCH   1  10
ATOM     10  C   UNL     1      89.498 104.116  56.290  1.00  0.00     0.176 C 
BRANCH  10  11
ATOM     11  O   UNL     1      90.303 104.338  55.125  1.00  0.00    -0.388 OA
ATOM     12  H   UNL     1      91.013 103.660  55.121  1.00  0.00     0.211 HD
ENDBRANCH  10  11
BRANCH  10  13
ATOM     13  C   UNL     1      87.998 103.859  55.963  1.00  0.00     0.171 C 
BRANCH  13  14
ATOM     14  O   UNL     1      87.736 103.982  54.562  1.00  0.00    -0.388 OA
ATOM     15  H   UNL     1      88.513 104.403  54.154  1.00  0.00     0.211 HD
ENDBRANCH  13  14
BRANCH  13  16
ATOM     16  C   UNL     1      87.430 102.553  56.538  1.00  0.00     0.190 C 
BRANCH  16  17
ATOM     17  O   UNL     1      86.068 102.394  56.130  1.00  0.00    -0.394 OA
ATOM     18  H   UNL     1      85.642 101.839  56.809  1.00  0.00     0.210 HD
ENDBRANCH  16  17
ENDBRANCH  13  16
ENDBRANCH  10  13
ENDBRANCH   1  10
TORSDOF 11
ENDMDL
MODEL 4
REMARK VINA RESULT:    -5.075      9.998     11.876
REMARK INTER + INTRA:          -7.888
REMARK INTER:                  -6.740
REMARK INTRA:                  -1.148
REMARK UNBOUND:                -0.439
REMARK SMILES OC[C@H](O)[C@@H](O)[C@H](O)[C@@H](O)CO
REMARK SMILES IDX 5 1 3 2 2 3 1 4 4 6 6 8 7 10 8 11 9 13 10 14 11 16 12 17
REMARK H PARENT 1 5 4 7 6 9 8 12 10 15 12 18
ROOT
ATOM      1  C   UNL     1      89.006 116.006  59.238  1.00  0.00     0.176 C 
ENDROOT
BRANCH   1   2
ATOM      2  C   UNL     1      90.396 116.181  58.601  1.00  0.00     0.171 C 
BRANCH   2   3
ATOM      3  C   UNL     1      90.310 116.986  57.297  1.00  0.00     0.190 C 
BRANCH   3   4
ATOM      4  O   UNL     1      89.437 116.298  56.392  1.00  0.00    -0.394 OA
ATOM      5  H   UNL     1      88.964 115.623  56.911  1.00  0.00     0.210 HD
ENDBRANCH   3   4
ENDBRANCH   2   3
BRANCH   2   6
ATOM      6  O   UNL     1      90.992 114.911  58.288  1.00  0.00    -0.388 OA
ATOM      7  H   UNL     1      90.290 114.401  57.835  1.00  0.00     0.211 HD
ENDBRANCH   2   6
ENDBRANCH   1   2
BRANCH   1   8
ATOM      8  O   UNL     1      88.083 116.938  58.662  1.00  0.00    -0.388 OA
ATOM      9  H   UNL     1      87.196 116.609  58.933  1.00  0.00     0.211 HD
ENDBRANCH   1   8
BRANCH   1  10
ATOM     10  C   UNL     1      88.439 114.566  59.201  1.00  0.00     0.176 C 
BRANCH  10  11
ATOM     11  O   UNL     1      87.944 114.284  57.886  1.00  0.00    -0.388 OA
ATOM     12  H   UNL     1      87.656 113.346  57.872  1.00  0.00     0.211 HD
ENDBRANCH  10  11
BRANCH  10  13
ATOM     13  C   UNL     1      87.452 114.152  60.332  1.00  0.00     0.171 C 
BRANCH  13  14
ATOM     14  O   UNL     1      86.551 115.213  60.659  1.00  0.00    -0.388 OA
ATOM     15  H   UNL     1      85.943 115.325  59.907  1.00  0.00     0.211 HD
ENDBRANCH  13  14
BRANCH  13  16
ATOM     16  C   UNL     1      86.712 112.828  60.088  1.00  0.00     0.190 C 
BRANCH  16  17
ATOM     17  O   UNL     1      85.723 113.005  59.070  1.00  0.00    -0.394 OA
ATOM     18  H   UNL     1      85.862 112.286  58.426  1.00  0.00     0.210 HD
ENDBRANCH  16  17
ENDBRANCH  13  16
ENDBRANCH  10  13
ENDBRANCH   1  10
TORSDOF 11
ENDMDL
MODEL 5
REMARK VINA RESULT:    -5.058      1.563      2.407
REMARK INTER + INTRA:          -7.862
REMARK INTER:                  -7.456
REMARK INTRA:                  -0.406
REMARK UNBOUND:                -0.439
REMARK SMILES OC[C@H](O)[C@@H](O)[C@H](O)[C@@H](O)CO
REMARK SMILES IDX 5 1 3 2 2 3 1 4 4 6 6 8 7 10 8 11 9 13 10 14 11 16 12 17
REMARK H PARENT 1 5 4 7 6 9 8 12 10 15 12 18
ROOT
ATOM      1  C   UNL     1      89.199 104.364  56.789  1.00  0.00     0.176 C 
ENDROOT
BRANCH   1   2
ATOM      2  C   UNL     1      89.608 103.830  55.406  1.00  0.00     0.171 C 
BRANCH   2   3
ATOM      3  C   UNL     1      88.898 104.599  54.282  1.00  0.00     0.190 C 
BRANCH   3   4
ATOM      4  O   UNL     1      87.716 105.204  54.820  1.00  0.00    -0.394 OA
ATOM      5  H   UNL     1      87.980 106.066  55.189  1.00  0.00     0.210 HD
ENDBRANCH   3   4
ENDBRANCH   2   3
BRANCH   2   6
ATOM      6  O   UNL     1      89.271 102.439  55.260  1.00  0.00    -0.388 OA
ATOM      7  H   UNL     1      89.420 102.044  56.143  1.00  0.00     0.211 HD
ENDBRANCH   2   6
ENDBRANCH   1   2
BRANCH   1   8
ATOM      8  O   UNL     1      88.928 103.271  57.674  1.00  0.00    -0.388 OA
ATOM      9  H   UNL     1      88.763 103.694  58.548  1.00  0.00     0.211 HD
ENDBRANCH   1   8
BRANCH   1  10
ATOM     10  C   UNL     1      90.189 105.367  57.430  1.00  0.00     0.176 C 
BRANCH  10  11
ATOM     11  O   UNL     1      90.390 106.471  56.538  1.00  0.00    -0.388 OA
ATOM     12  H   UNL     1      89.535 106.649  56.089  1.00  0.00     0.211 HD
ENDBRANCH  10  11
BRANCH  10  13
ATOM     13  C   UNL     1      91.516 104.796  58.012  1.00  0.00     0.171 C 
BRANCH  13  14
ATOM     14  O   UNL     1      92.656 105.498  57.509  1.00  0.00    -0.388 OA
ATOM     15  H   UNL     1      92.474 106.451  57.588  1.00  0.00     0.211 HD
ENDBRANCH  13  14
BRANCH  13  16
ATOM     16  C   UNL     1      91.548 104.676  59.543  1.00  0.00     0.190 C 
BRANCH  16  17
ATOM     17  O   UNL     1      90.577 103.721  59.976  1.00  0.00    -0.394 OA
ATOM     18  H   UNL     1      90.976 103.246  60.728  1.00  0.00     0.210 HD
ENDBRANCH  16  17
ENDBRANCH  13  16
ENDBRANCH  10  13
ENDBRANCH   1  10
TORSDOF 11
ENDMDL
MODEL 6
REMARK VINA RESULT:    -5.033      9.972     11.323
REMARK INTER + INTRA:          -7.826
REMARK INTER:                  -6.863
REMARK INTRA:                  -0.963
REMARK UNBOUND:                -0.439
REMARK SMILES OC[C@H](O)[C@@H](O)[C@H](O)[C@@H](O)CO
REMARK SMILES IDX 5 1 3 2 2 3 1 4 4 6 6 8 7 10 8 11 9 13 10 14 11 16 12 17
REMARK H PARENT 1 5 4 7 6 9 8 12 10 15 12 18
ROOT
ATOM      1  C   UNL     1      88.432 114.438  59.186  1.00  0.00     0.176 C 
ENDROOT
BRANCH   1   2
ATOM      2  C   UNL     1      87.487 114.051  60.336  1.00  0.00     0.171 C 
BRANCH   2   3
ATOM      3  C   UNL     1      86.734 112.750  60.021  1.00  0.00     0.190 C 
BRANCH   3   4
ATOM      4  O   UNL     1      85.664 113.049  59.116  1.00  0.00    -0.394 OA
ATOM      5  H   UNL     1      85.275 112.198  58.845  1.00  0.00     0.210 HD
ENDBRANCH   3   4
ENDBRANCH   2   3
BRANCH   2   6
ATOM      6  O   UNL     1      86.504 115.073  60.574  1.00  0.00    -0.388 OA
ATOM      7  H   UNL     1      86.350 115.063  61.541  1.00  0.00     0.211 HD
ENDBRANCH   2   6
ENDBRANCH   1   2
BRANCH   1   8
ATOM      8  O   UNL     1      87.771 114.257  57.928  1.00  0.00    -0.388 OA
ATOM      9  H   UNL     1      87.112 114.987  57.887  1.00  0.00     0.211 HD
ENDBRANCH   1   8
BRANCH   1  10
ATOM     10  C   UNL     1      89.056 115.851  59.290  1.00  0.00     0.176 C 
BRANCH  10  11
ATOM     11  O   UNL     1      88.086 116.828  58.890  1.00  0.00    -0.388 OA
ATOM     12  H   UNL     1      87.268 116.348  58.638  1.00  0.00     0.211 HD
ENDBRANCH  10  11
BRANCH  10  13
ATOM     13  C   UNL     1      90.455 116.070  58.641  1.00  0.00     0.171 C 
BRANCH  13  14
ATOM     14  O   UNL     1      91.189 114.846  58.548  1.00  0.00    -0.388 OA
ATOM     15  H   UNL     1      90.802 114.222  59.186  1.00  0.00     0.211 HD
ENDBRANCH  13  14
BRANCH  13  16
ATOM     16  C   UNL     1      90.433 116.827  57.305  1.00  0.00     0.190 C 
BRANCH  16  17
ATOM     17  O   UNL     1      89.343 116.366  56.502  1.00  0.00    -0.394 OA
ATOM     18  H   UNL     1      88.811 117.153  56.284  1.00  0.00     0.210 HD
ENDBRANCH  16  17
ENDBRANCH  13  16
ENDBRANCH  10  13
ENDBRANCH   1  10
TORSDOF 11
ENDMDL
MODEL 7
REMARK VINA RESULT:    -5.030      4.366      6.266
REMARK INTER + INTRA:          -7.822
REMARK INTER:                  -6.856
REMARK INTRA:                  -0.967
REMARK UNBOUND:                -0.439
REMARK SMILES OC[C@H](O)[C@@H](O)[C@H](O)[C@@H](O)CO
REMARK SMILES IDX 5 1 3 2 2 3 1 4 4 6 6 8 7 10 8 11 9 13 10 14 11 16 12 17
REMARK H PARENT 1 5 4 7 6 9 8 12 10 15 12 18
ROOT
ATOM      1  C   UNL     1      93.999 104.161  60.779  1.00  0.00     0.176 C 
ENDROOT
BRANCH   1   2
ATOM      2  C   UNL     1      92.658 104.800  60.378  1.00  0.00     0.171 C 
BRANCH   2   3
ATOM      3  C   UNL     1      91.491 103.828  60.602  1.00  0.00     0.190 C 
BRANCH   3   4
ATOM      4  O   UNL     1      91.402 102.952  59.471  1.00  0.00    -0.394 OA
ATOM      5  H   UNL     1      91.015 102.116  59.789  1.00  0.00     0.210 HD
ENDBRANCH   3   4
ENDBRANCH   2   3
BRANCH   2   6
ATOM      6  O   UNL     1      92.650 105.173  58.989  1.00  0.00    -0.388 OA
ATOM      7  H   UNL     1      93.449 104.756  58.605  1.00  0.00     0.211 HD
ENDBRANCH   2   6
ENDBRANCH   1   2
BRANCH   1   8
ATOM      8  O   UNL     1      93.793 102.799  61.171  1.00  0.00    -0.388 OA
ATOM      9  H   UNL     1      93.137 102.451  60.524  1.00  0.00     0.211 HD
ENDBRANCH   1   8
BRANCH   1  10
ATOM     10  C   UNL     1      95.126 104.273  59.724  1.00  0.00     0.176 C 
BRANCH  10  11
ATOM     11  O   UNL     1      94.993 103.210  58.772  1.00  0.00    -0.388 OA
ATOM     12  H   UNL     1      94.915 102.370  59.274  1.00  0.00     0.211 HD
ENDBRANCH  10  11
BRANCH  10  13
ATOM     13  C   UNL     1      96.583 104.454  60.244  1.00  0.00     0.171 C 
BRANCH  13  14
ATOM     14  O   UNL     1      96.835 103.647  61.398  1.00  0.00    -0.388 OA
ATOM     15  H   UNL     1      97.605 104.024  61.858  1.00  0.00     0.211 HD
ENDBRANCH  13  14
BRANCH  13  16
ATOM     16  C   UNL     1      97.673 104.282  59.176  1.00  0.00     0.190 C 
BRANCH  16  17
ATOM     17  O   UNL     1      98.030 102.902  59.064  1.00  0.00    -0.394 OA
ATOM     18  H   UNL     1      98.017 102.541  59.970  1.00  0.00     0.210 HD
ENDBRANCH  16  17
ENDBRANCH  13  16
ENDBRANCH  10  13
ENDBRANCH   1  10
TORSDOF 11
ENDMDL
MODEL 8
REMARK VINA RESULT:    -5.011      6.331      7.854
REMARK INTER + INTRA:          -7.793
REMARK INTER:                  -6.779
REMARK INTRA:                  -1.015
REMARK UNBOUND:                -0.439
REMARK SMILES OC[C@H](O)[C@@H](O)[C@H](O)[C@@H](O)CO
REMARK SMILES IDX 5 1 3 2 2 3 1 4 4 6 6 8 7 10 8 11 9 13 10 14 11 16 12 17
REMARK H PARENT 1 5 4 7 6 9 8 12 10 15 12 18
ROOT
ATOM      1  C   UNL     1      96.294 104.665  60.411  1.00  0.00     0.176 C 
ENDROOT
BRANCH   1   2
ATOM      2  C   UNL     1      94.844 105.134  60.622  1.00  0.00     0.171 C 
BRANCH   2   3
ATOM      3  C   UNL     1      94.082 104.179  61.551  1.00  0.00     0.190 C 
BRANCH   3   4
ATOM      4  O   UNL     1      93.979 102.902  60.908  1.00  0.00    -0.394 OA
ATOM      5  H   UNL     1      94.765 102.805  60.340  1.00  0.00     0.210 HD
ENDBRANCH   3   4
ENDBRANCH   2   3
BRANCH   2   6
ATOM      6  O   UNL     1      94.127 105.193  59.377  1.00  0.00    -0.388 OA
ATOM      7  H   UNL     1      94.062 104.264  59.073  1.00  0.00     0.211 HD
ENDBRANCH   2   6
ENDBRANCH   1   2
BRANCH   1   8
ATOM      8  O   UNL     1      96.626 103.654  61.370  1.00  0.00    -0.388 OA
ATOM      9  H   UNL     1      97.171 103.006  60.869  1.00  0.00     0.211 HD
ENDBRANCH   1   8
BRANCH   1  10
ATOM     10  C   UNL     1      96.638 104.203  58.974  1.00  0.00     0.176 C 
BRANCH  10  11
ATOM     11  O   UNL     1      95.868 103.037  58.654  1.00  0.00    -0.388 OA
ATOM     12  H   UNL     1      96.323 102.263  59.050  1.00  0.00     0.211 HD
ENDBRANCH  10  11
BRANCH  10  13
ATOM     13  C   UNL     1      98.143 104.068  58.602  1.00  0.00     0.171 C 
BRANCH  13  14
ATOM     14  O   UNL     1      98.821 103.154  59.468  1.00  0.00    -0.388 OA
ATOM     15  H   UNL     1      99.575 102.787  58.976  1.00  0.00     0.211 HD
ENDBRANCH  13  14
BRANCH  13  16
ATOM     16  C   UNL     1      98.415 103.761  57.121  1.00  0.00     0.190 C 
BRANCH  16  17
ATOM     17  O   UNL     1      99.423 104.641  56.619  1.00  0.00    -0.394 OA
ATOM     18  H   UNL     1      99.031 105.098  55.852  1.00  0.00     0.210 HD
ENDBRANCH  16  17
ENDBRANCH  13  16
ENDBRANCH  10  13
ENDBRANCH   1  10
TORSDOF 11
ENDMDL
MODEL 9
REMARK VINA RESULT:    -4.973      5.856      8.332
REMARK INTER + INTRA:          -7.738
REMARK INTER:                  -6.805
REMARK INTRA:                  -0.933
REMARK UNBOUND:                -0.439
REMARK SMILES OC[C@H](O)[C@@H](O)[C@H](O)[C@@H](O)CO
REMARK SMILES IDX 5 1 3 2 2 3 1 4 4 6 6 8 7 10 8 11 9 13 10 14 11 16 12 17
REMARK H PARENT 1 5 4 7 6 9 8 12 10 15 12 18
ROOT
ATOM      1  C   UNL     1      96.572 104.116  58.837  1.00  0.00     0.176 C 
ENDROOT
BRANCH   1   2
ATOM      2  C   UNL     1      98.105 104.021  58.761  1.00  0.00     0.171 C 
BRANCH   2   3
ATOM      3  C   UNL     1      98.568 103.657  57.343  1.00  0.00     0.190 C 
BRANCH   3   4
ATOM      4  O   UNL     1      99.414 104.707  56.855  1.00  0.00    -0.394 OA
ATOM      5  H   UNL     1      98.995 105.549  57.106  1.00  0.00     0.210 HD
ENDBRANCH   3   4
ENDBRANCH   2   3
BRANCH   2   6
ATOM      6  O   UNL     1      98.613 103.014  59.654  1.00  0.00    -0.388 OA
ATOM      7  H   UNL     1      97.823 102.526  59.967  1.00  0.00     0.211 HD
ENDBRANCH   2   6
ENDBRANCH   1   2
BRANCH   1   8
ATOM      8  O   UNL     1      95.983 102.883  58.408  1.00  0.00    -0.388 OA
ATOM      9  H   UNL     1      95.069 103.125  58.137  1.00  0.00     0.211 HD
ENDBRANCH   1   8
BRANCH   1  10
ATOM     10  C   UNL     1      96.004 104.558  60.208  1.00  0.00     0.176 C 
BRANCH  10  11
ATOM     11  O   UNL     1      96.502 103.685  61.231  1.00  0.00    -0.388 OA
ATOM     12  H   UNL     1      95.917 102.897  61.259  1.00  0.00     0.211 HD
ENDBRANCH  10  11
BRANCH  10  13
ATOM     13  C   UNL     1      94.471 104.809  60.305  1.00  0.00     0.171 C 
BRANCH  13  14
ATOM     14  O   UNL     1      93.908 105.132  59.030  1.00  0.00    -0.388 OA
ATOM     15  H   UNL     1      93.300 104.412  58.787  1.00  0.00     0.211 HD
ENDBRANCH  13  14
BRANCH  13  16
ATOM     16  C   UNL     1      93.681 103.699  61.014  1.00  0.00     0.190 C 
BRANCH  16  17
ATOM     17  O   UNL     1      93.767 102.485  60.263  1.00  0.00    -0.394 OA
ATOM     18  H   UNL     1      94.025 101.789  60.896  1.00  0.00     0.210 HD
ENDBRANCH  16  17
ENDBRANCH  13  16
ENDBRANCH  10  13
ENDBRANCH   1  10
TORSDOF 11
ENDMDL
