MODEL 1
REMARK VINA RESULT:    -5.229      0.000      0.000
REMARK INTER + INTRA:          -8.114
REMARK INTER:                  -7.675
REMARK INTRA:                  -0.439
REMARK UNBOUND:                -0.439
REMARK SMILES OC[C@H](O)[C@@H](O)[C@H](O)[C@@H](O)CO
REMARK SMILES IDX 5 1 3 2 2 3 1 4 4 6 6 8 7 10 8 11 9 13 10 14 11 16 12 17
REMARK H PARENT 1 5 4 7 6 9 8 12 10 15 12 18
ROOT
ATOM      1  C   UNL     1      89.517 104.069  56.352  1.00  0.00     0.176 C 
ENDROOT
BRANCH   1   2
ATOM      2  C   UNL     1      88.024 103.906  56.018  1.00  0.00     0.171 C 
BRANCH   2   3
ATOM      3  C   UNL     1      87.484 102.565  56.535  1.00  0.00     0.190 C 
BRANCH   3   4
ATOM      4  O   UNL     1      86.107 102.449  56.152  1.00  0.00    -0.394 OA
ATOM      5  H   UNL     1      86.001 102.948  55.322  1.00  0.00     0.210 HD
ENDBRANCH   3   4
ENDBRANCH   2   3
BRANCH   2   6
ATOM      6  O   UNL     1      87.797 103.946  54.599  1.00  0.00    -0.388 OA
ATOM      7  H   UNL     1      86.823 103.948  54.494  1.00  0.00     0.211 HD
ENDBRANCH   2   6
ENDBRANCH   1   2
BRANCH   1   8
ATOM      8  O   UNL     1      90.263 104.303  55.152  1.00  0.00    -0.388 OA
ATOM      9  H   UNL     1      90.331 103.419  54.725  1.00  0.00     0.211 HD
ENDBRANCH   1   8
BRANCH   1  10
ATOM     10  C   UNL     1      89.842 105.134  57.427  1.00  0.00     0.176 C 
BRANCH  10  11
ATOM     11  O   UNL     1      90.269 106.342  56.785  1.00  0.00    -0.388 OA
ATOM     12  H   UNL     1      90.804 106.088  56.001  1.00  0.00     0.211 HD
ENDBRANCH  10  11
BRANCH  10  13
ATOM     13  C   UNL     1      90.762 104.706  58.609  1.00  0.00     0.171 C 
BRANCH  13  14
ATOM     14  O   UNL     1      90.483 103.370  59.036  1.00  0.00    -0.388 OA
ATOM     15  H   UNL     1      89.669 103.395  59.568  1.00  0.00     0.211 HD
ENDBRANCH  13  14
BRANCH  13  16
ATOM     16  C   UNL     1      92.262 104.929  58.369  1.00  0.00     0.190 C 
BRANCH  16  17
ATOM     17  O   UNL     1      92.542 104.893  56.968  1.00  0.00    -0.394 OA
ATOM     18  H   UNL     1      91.763 104.489  56.543  1.00  0.00     0.210 HD
ENDBRANCH  16  17
ENDBRANCH  13  16
ENDBRANCH  10  13
ENDBRANCH   1  10
TORSDOF 11
ENDMDL
