REMARK SMILES OC[C@@H](O)[C@H](O)[C@@H](O)[C@H](O)CO
REMARK SMILES IDX 5 1 3 2 2 3 1 4 4 6 6 8 7 10 8 11 9 13 10 14 11 16 12 17
REMARK H PARENT 1 5 4 7 6 9 8 12 10 15 12 18
ROOT
ATOM      1  C   UNL     1       0.899  -0.726   0.661  1.00  0.00     0.176 C 
ENDROOT
BRANCH   1   2
ATOM      2  C   UNL     1       1.585   0.649   0.737  1.00  0.00     0.171 C 
BRANCH   2   3
ATOM      3  C   UNL     1       2.507   0.943  -0.455  1.00  0.00     0.190 C 
BRANCH   3   4
ATOM      4  O   UNL     1       3.024   2.272  -0.299  1.00  0.00    -0.394 OA
ATOM      5  H   UNL     1       3.677   2.398  -1.012  1.00  0.00     0.210 HD
ENDBRANCH   3   4
ENDBRANCH   2   3
BRANCH   2   6
ATOM      6  O   UNL     1       0.640   1.719   0.844  1.00  0.00    -0.388 OA
ATOM      7  H   UNL     1       1.190   2.527   0.758  1.00  0.00     0.211 HD
ENDBRANCH   2   6
ENDBRANCH   1   2
BRANCH   1   8
ATOM      8  O   UNL     1       1.899  -1.724   0.379  1.00  0.00    -0.388 OA
ATOM      9  H   UNL     1       1.396  -2.485   0.017  1.00  0.00     0.211 HD
ENDBRANCH   1   8
BRANCH   1  10
ATOM     10  C   UNL     1      -0.224  -0.847  -0.395  1.00  0.00     0.176 C 
BRANCH  10  11
ATOM     11  O   UNL     1      -0.448  -2.266  -0.600  1.00  0.00    -0.388 OA
ATOM     12  H   UNL     1      -1.074  -2.518   0.114  1.00  0.00     0.211 HD
ENDBRANCH  10  11
BRANCH  10  13
ATOM     13  C   UNL     1      -1.562  -0.218   0.028  1.00  0.00     0.171 C 
BRANCH  13  14
ATOM     14  O   UNL     1      -2.139  -1.042   1.063  1.00  0.00    -0.388 OA
ATOM     15  H   UNL     1      -3.079  -0.771   1.112  1.00  0.00     0.211 HD
ENDBRANCH  13  14
BRANCH  13  16
ATOM     16  C   UNL     1      -2.558  -0.164  -1.136  1.00  0.00     0.190 C 
BRANCH  16  17
ATOM     17  O   UNL     1      -3.783   0.409  -0.666  1.00  0.00    -0.394 OA
ATOM     18  H   UNL     1      -3.619   1.357  -0.508  1.00  0.00     0.210 HD
ENDBRANCH  16  17
ENDBRANCH  13  16
ENDBRANCH  10  13
ENDBRANCH   1  10
TORSDOF 11
