MODEL 1
REMARK VINA RESULT:    -5.210      0.000      0.000
REMARK INTER + INTRA:          -8.197
REMARK INTER:                  -7.646
REMARK INTRA:                  -0.551
REMARK UNBOUND:                -0.551
REMARK SMILES OC[C@@H](O)[C@H](O)[C@@H](O)[C@H](O)CO
REMARK SMILES IDX 5 1 3 2 2 3 1 4 4 6 6 8 7 10 8 11 9 13 10 14 11 16 12 17
REMARK H PARENT 1 5 4 7 6 9 8 12 10 15 12 18
ROOT
ATOM      1  C   UNL     1      88.847 104.508  56.479  1.00  0.00     0.176 C 
ENDROOT
BRANCH   1   2
ATOM      2  C   UNL     1      88.799 102.990  56.235  1.00  0.00     0.171 C 
BRANCH   2   3
ATOM      3  C   UNL     1      87.464 102.344  56.633  1.00  0.00     0.190 C 
BRANCH   3   4
ATOM      4  O   UNL     1      86.440 102.886  55.787  1.00  0.00    -0.394 OA
ATOM      5  H   UNL     1      85.632 102.934  56.331  1.00  0.00     0.210 HD
ENDBRANCH   3   4
ENDBRANCH   2   3
BRANCH   2   6
ATOM      6  O   UNL     1      89.067 102.654  54.870  1.00  0.00    -0.388 OA
ATOM      7  H   UNL     1      88.934 103.499  54.390  1.00  0.00     0.211 HD
ENDBRANCH   2   6
ENDBRANCH   1   2
BRANCH   1   8
ATOM      8  O   UNL     1      88.390 105.180  55.290  1.00  0.00    -0.388 OA
ATOM      9  H   UNL     1      88.026 106.033  55.610  1.00  0.00     0.211 HD
ENDBRANCH   1   8
BRANCH   1  10
ATOM     10  C   UNL     1      90.236 105.073  56.857  1.00  0.00     0.176 C 
BRANCH  10  11
ATOM     11  O   UNL     1      90.084 106.513  56.952  1.00  0.00    -0.388 OA
ATOM     12  H   UNL     1      89.831 106.790  56.044  1.00  0.00     0.211 HD
ENDBRANCH  10  11
BRANCH  10  13
ATOM     13  C   UNL     1      90.779 104.570  58.205  1.00  0.00     0.171 C 
BRANCH  13  14
ATOM     14  O   UNL     1      90.071 105.255  59.259  1.00  0.00    -0.388 OA
ATOM     15  H   UNL     1      90.046 106.195  58.982  1.00  0.00     0.211 HD
ENDBRANCH  13  14
BRANCH  13  16
ATOM     16  C   UNL     1      92.272 104.879  58.366  1.00  0.00     0.190 C 
BRANCH  16  17
ATOM     17  O   UNL     1      92.722 105.592  57.209  1.00  0.00    -0.394 OA
ATOM     18  H   UNL     1      92.385 105.118  56.426  1.00  0.00     0.210 HD
ENDBRANCH  16  17
ENDBRANCH  13  16
ENDBRANCH  10  13
ENDBRANCH   1  10
TORSDOF 11
ENDMDL
MODEL 2
REMARK VINA RESULT:    -5.109      1.330      4.577
REMARK INTER + INTRA:          -8.048
REMARK INTER:                  -7.431
REMARK INTRA:                  -0.617
REMARK UNBOUND:                -0.551
REMARK SMILES OC[C@@H](O)[C@H](O)[C@@H](O)[C@H](O)CO
REMARK SMILES IDX 5 1 3 2 2 3 1 4 4 6 6 8 7 10 8 11 9 13 10 14 11 16 12 17
REMARK H PARENT 1 5 4 7 6 9 8 12 10 15 12 18
ROOT
ATOM      1  C   UNL     1      90.057 105.467  56.596  1.00  0.00     0.176 C 
ENDROOT
BRANCH   1   2
ATOM      2  C   UNL     1      91.526 105.903  56.452  1.00  0.00     0.171 C 
BRANCH   2   3
ATOM      3  C   UNL     1      92.501 105.066  57.293  1.00  0.00     0.190 C 
BRANCH   3   4
ATOM      4  O   UNL     1      92.153 105.235  58.674  1.00  0.00    -0.394 OA
ATOM      5  H   UNL     1      92.975 105.482  59.136  1.00  0.00     0.210 HD
ENDBRANCH   3   4
ENDBRANCH   2   3
BRANCH   2   6
ATOM      6  O   UNL     1      91.968 105.868  55.091  1.00  0.00    -0.388 OA
ATOM      7  H   UNL     1      91.577 105.040  54.738  1.00  0.00     0.211 HD
ENDBRANCH   2   6
ENDBRANCH   1   2
BRANCH   1   8
ATOM      8  O   UNL     1      89.566 105.921  57.872  1.00  0.00    -0.388 OA
ATOM      9  H   UNL     1      88.593 105.802  57.821  1.00  0.00     0.211 HD
ENDBRANCH   1   8
BRANCH   1  10
ATOM     10  C   UNL     1      89.805 103.945  56.488  1.00  0.00     0.176 C 
BRANCH  10  11
ATOM     11  O   UNL     1      89.667 103.451  57.845  1.00  0.00    -0.388 OA
ATOM     12  H   UNL     1      89.985 102.523  57.799  1.00  0.00     0.211 HD
ENDBRANCH  10  11
BRANCH  10  13
ATOM     13  C   UNL     1      88.528 103.568  55.720  1.00  0.00     0.171 C 
BRANCH  13  14
ATOM     14  O   UNL     1      87.851 104.786  55.345  1.00  0.00    -0.388 OA
ATOM     15  H   UNL     1      87.318 104.552  54.558  1.00  0.00     0.211 HD
ENDBRANCH  13  14
BRANCH  13  16
ATOM     16  C   UNL     1      87.566 102.746  56.585  1.00  0.00     0.190 C 
BRANCH  16  17
ATOM     17  O   UNL     1      86.294 102.687  55.930  1.00  0.00    -0.394 OA
ATOM     18  H   UNL     1      85.936 101.791  56.069  1.00  0.00     0.210 HD
ENDBRANCH  16  17
ENDBRANCH  13  16
ENDBRANCH  10  13
ENDBRANCH   1  10
TORSDOF 11
ENDMDL
MODEL 3
REMARK VINA RESULT:    -5.067     19.733     20.846
REMARK INTER + INTRA:          -7.987
REMARK INTER:                  -7.353
REMARK INTRA:                  -0.633
REMARK UNBOUND:                -0.551
REMARK SMILES OC[C@@H](O)[C@H](O)[C@@H](O)[C@H](O)CO
REMARK SMILES IDX 5 1 3 2 2 3 1 4 4 6 6 8 7 10 8 11 9 13 10 14 11 16 12 17
REMARK H PARENT 1 5 4 7 6 9 8 12 10 15 12 18
ROOT
ATOM      1  C   UNL     1     104.735  92.618  46.225  1.00  0.00     0.176 C 
ENDROOT
BRANCH   1   2
ATOM      2  C   UNL     1     104.508  93.158  44.802  1.00  0.00     0.171 C 
BRANCH   2   3
ATOM      3  C   UNL     1     103.099  92.885  44.258  1.00  0.00     0.190 C 
BRANCH   3   4
ATOM      4  O   UNL     1     102.584  94.113  43.724  1.00  0.00    -0.394 OA
ATOM      5  H   UNL     1     103.241  94.802  43.935  1.00  0.00     0.210 HD
ENDBRANCH   3   4
ENDBRANCH   2   3
BRANCH   2   6
ATOM      6  O   UNL     1     104.756  94.565  44.712  1.00  0.00    -0.388 OA
ATOM      7  H   UNL     1     104.076  94.883  44.081  1.00  0.00     0.211 HD
ENDBRANCH   2   6
ENDBRANCH   1   2
BRANCH   1   8
ATOM      8  O   UNL     1     104.859  91.184  46.158  1.00  0.00    -0.388 OA
ATOM      9  H   UNL     1     104.477  90.941  45.287  1.00  0.00     0.211 HD
ENDBRANCH   1   8
BRANCH   1  10
ATOM     10  C   UNL     1     103.629  92.966  47.248  1.00  0.00     0.176 C 
BRANCH  10  11
ATOM     11  O   UNL     1     103.805  92.063  48.370  1.00  0.00    -0.388 OA
ATOM     12  H   UNL     1     104.686  92.300  48.736  1.00  0.00     0.211 HD
ENDBRANCH  10  11
BRANCH  10  13
ATOM     13  C   UNL     1     103.696  94.404  47.788  1.00  0.00     0.171 C 
BRANCH  13  14
ATOM     14  O   UNL     1     103.968  94.340  49.205  1.00  0.00    -0.388 OA
ATOM     15  H   UNL     1     104.680  93.674  49.299  1.00  0.00     0.211 HD
ENDBRANCH  13  14
BRANCH  13  16
ATOM     16  C   UNL     1     102.368  95.145  47.600  1.00  0.00     0.190 C 
BRANCH  16  17
ATOM     17  O   UNL     1     102.250  95.536  46.228  1.00  0.00    -0.394 OA
ATOM     18  H   UNL     1     101.784  96.392  46.208  1.00  0.00     0.210 HD
ENDBRANCH  16  17
ENDBRANCH  13  16
ENDBRANCH  10  13
ENDBRANCH   1  10
TORSDOF 11
ENDMDL
MODEL 4
REMARK VINA RESULT:    -5.040      1.821      2.416
REMARK INTER + INTRA:          -7.947
REMARK INTER:                  -7.581
REMARK INTRA:                  -0.367
REMARK UNBOUND:                -0.551
REMARK SMILES OC[C@@H](O)[C@H](O)[C@@H](O)[C@H](O)CO
REMARK SMILES IDX 5 1 3 2 2 3 1 4 4 6 6 8 7 10 8 11 9 13 10 14 11 16 12 17
REMARK H PARENT 1 5 4 7 6 9 8 12 10 15 12 18
ROOT
ATOM      1  C   UNL     1      88.689 104.421  55.635  1.00  0.00     0.176 C 
ENDROOT
BRANCH   1   2
ATOM      2  C   UNL     1      88.194 103.576  56.822  1.00  0.00     0.171 C 
BRANCH   2   3
ATOM      3  C   UNL     1      87.444 102.304  56.402  1.00  0.00     0.190 C 
BRANCH   3   4
ATOM      4  O   UNL     1      86.108 102.676  56.037  1.00  0.00    -0.394 OA
ATOM      5  H   UNL     1      85.968 102.342  55.132  1.00  0.00     0.210 HD
ENDBRANCH   3   4
ENDBRANCH   2   3
BRANCH   2   6
ATOM      6  O   UNL     1      89.262 103.197  57.697  1.00  0.00    -0.388 OA
ATOM      7  H   UNL     1      89.768 104.027  57.823  1.00  0.00     0.211 HD
ENDBRANCH   2   6
ENDBRANCH   1   2
BRANCH   1   8
ATOM      8  O   UNL     1      87.804 104.206  54.518  1.00  0.00    -0.388 OA
ATOM      9  H   UNL     1      88.001 104.942  53.899  1.00  0.00     0.211 HD
ENDBRANCH   1   8
BRANCH   1  10
ATOM     10  C   UNL     1      90.136 104.131  55.175  1.00  0.00     0.176 C 
BRANCH  10  11
ATOM     11  O   UNL     1      90.138 104.231  53.727  1.00  0.00    -0.388 OA
ATOM     12  H   UNL     1      89.879 105.162  53.549  1.00  0.00     0.211 HD
ENDBRANCH  10  11
BRANCH  10  13
ATOM     13  C   UNL     1      91.182 105.120  55.715  1.00  0.00     0.171 C 
BRANCH  13  14
ATOM     14  O   UNL     1      90.495 106.319  56.131  1.00  0.00    -0.388 OA
ATOM     15  H   UNL     1      90.849 107.030  55.557  1.00  0.00     0.211 HD
ENDBRANCH  13  14
BRANCH  13  16
ATOM     16  C   UNL     1      92.200 105.515  54.638  1.00  0.00     0.190 C 
BRANCH  16  17
ATOM     17  O   UNL     1      93.439 104.850  54.912  1.00  0.00    -0.394 OA
ATOM     18  H   UNL     1      93.716 105.110  55.810  1.00  0.00     0.210 HD
ENDBRANCH  16  17
ENDBRANCH  13  16
ENDBRANCH  10  13
ENDBRANCH   1  10
TORSDOF 11
ENDMDL
MODEL 5
REMARK VINA RESULT:    -4.982      8.399      9.896
REMARK INTER + INTRA:          -7.863
REMARK INTER:                  -7.106
REMARK INTRA:                  -0.757
REMARK UNBOUND:                -0.551
REMARK SMILES OC[C@@H](O)[C@H](O)[C@@H](O)[C@H](O)CO
REMARK SMILES IDX 5 1 3 2 2 3 1 4 4 6 6 8 7 10 8 11 9 13 10 14 11 16 12 17
REMARK H PARENT 1 5 4 7 6 9 8 12 10 15 12 18
ROOT
ATOM      1  C   UNL     1      97.551 103.228  56.140  1.00  0.00     0.176 C 
ENDROOT
BRANCH   1   2
ATOM      2  C   UNL     1      98.393 103.946  57.208  1.00  0.00     0.171 C 
BRANCH   2   3
ATOM      3  C   UNL     1      97.697 104.050  58.573  1.00  0.00     0.190 C 
BRANCH   3   4
ATOM      4  O   UNL     1      98.248 103.041  59.430  1.00  0.00    -0.394 OA
ATOM      5  H   UNL     1      97.869 103.195  60.315  1.00  0.00     0.210 HD
ENDBRANCH   3   4
ENDBRANCH   2   3
BRANCH   2   6
ATOM      6  O   UNL     1      99.665 103.320  57.403  1.00  0.00    -0.388 OA
ATOM      7  H   UNL     1      99.658 103.064  58.351  1.00  0.00     0.211 HD
ENDBRANCH   2   6
ENDBRANCH   1   2
BRANCH   1   8
ATOM      8  O   UNL     1      97.218 101.913  56.623  1.00  0.00    -0.388 OA
ATOM      9  H   UNL     1      96.513 102.063  57.290  1.00  0.00     0.211 HD
ENDBRANCH   1   8
BRANCH   1  10
ATOM     10  C   UNL     1      98.222 103.085  54.754  1.00  0.00     0.176 C 
BRANCH  10  11
ATOM     11  O   UNL     1      99.312 104.043  54.721  1.00  0.00    -0.388 OA
ATOM     12  H   UNL     1      99.428 104.310  55.660  1.00  0.00     0.211 HD
ENDBRANCH  10  11
BRANCH  10  13
ATOM     13  C   UNL     1      98.815 101.693  54.479  1.00  0.00     0.171 C 
BRANCH  13  14
ATOM     14  O   UNL     1     100.249 101.778  54.620  1.00  0.00    -0.388 OA
ATOM     15  H   UNL     1     100.549 102.318  53.859  1.00  0.00     0.211 HD
ENDBRANCH  13  14
BRANCH  13  16
ATOM     16  C   UNL     1      98.513 101.219  53.052  1.00  0.00     0.190 C 
BRANCH  16  17
ATOM     17  O   UNL     1      97.444 102.010  52.522  1.00  0.00    -0.394 OA
ATOM     18  H   UNL     1      96.620 101.707  52.945  1.00  0.00     0.210 HD
ENDBRANCH  16  17
ENDBRANCH  13  16
ENDBRANCH  10  13
ENDBRANCH   1  10
TORSDOF 11
ENDMDL
MODEL 6
REMARK VINA RESULT:    -4.897      7.749      9.124
REMARK INTER + INTRA:          -7.737
REMARK INTER:                  -6.489
REMARK INTRA:                  -1.249
REMARK UNBOUND:                -0.551
REMARK SMILES OC[C@@H](O)[C@H](O)[C@@H](O)[C@H](O)CO
REMARK SMILES IDX 5 1 3 2 2 3 1 4 4 6 6 8 7 10 8 11 9 13 10 14 11 16 12 17
REMARK H PARENT 1 5 4 7 6 9 8 12 10 15 12 18
ROOT
ATOM      1  C   UNL     1      96.159 104.466  60.432  1.00  0.00     0.176 C 
ENDROOT
BRANCH   1   2
ATOM      2  C   UNL     1      95.343 105.616  61.047  1.00  0.00     0.171 C 
BRANCH   2   3
ATOM      3  C   UNL     1      95.485 105.725  62.572  1.00  0.00     0.190 C 
BRANCH   3   4
ATOM      4  O   UNL     1      96.783 106.263  62.860  1.00  0.00    -0.394 OA
ATOM      5  H   UNL     1      96.876 106.251  63.830  1.00  0.00     0.210 HD
ENDBRANCH   3   4
ENDBRANCH   2   3
BRANCH   2   6
ATOM      6  O   UNL     1      95.682 106.885  60.476  1.00  0.00    -0.388 OA
ATOM      7  H   UNL     1      96.167 107.343  61.195  1.00  0.00     0.211 HD
ENDBRANCH   2   6
ENDBRANCH   1   2
BRANCH   1   8
ATOM      8  O   UNL     1      96.672 103.645  61.499  1.00  0.00    -0.388 OA
ATOM      9  H   UNL     1      96.104 102.844  61.491  1.00  0.00     0.211 HD
ENDBRANCH   1   8
BRANCH   1  10
ATOM     10  C   UNL     1      97.343 104.900  59.538  1.00  0.00     0.176 C 
BRANCH  10  11
ATOM     11  O   UNL     1      98.316 105.527  60.413  1.00  0.00    -0.388 OA
ATOM     12  H   UNL     1      99.092 105.694  59.834  1.00  0.00     0.211 HD
ENDBRANCH  10  11
BRANCH  10  13
ATOM     13  C   UNL     1      98.047 103.742  58.811  1.00  0.00     0.171 C 
BRANCH  13  14
ATOM     14  O   UNL     1      98.996 103.149  59.722  1.00  0.00    -0.388 OA
ATOM     15  H   UNL     1      98.490 102.977  60.543  1.00  0.00     0.211 HD
ENDBRANCH  13  14
BRANCH  13  16
ATOM     16  C   UNL     1      98.821 104.229  57.581  1.00  0.00     0.190 C 
BRANCH  16  17
ATOM     17  O   UNL     1     100.015 104.885  58.020  1.00  0.00    -0.394 OA
ATOM     18  H   UNL     1     100.028 105.770  57.610  1.00  0.00     0.210 HD
ENDBRANCH  16  17
ENDBRANCH  13  16
ENDBRANCH  10  13
ENDBRANCH   1  10
TORSDOF 11
ENDMDL
MODEL 7
REMARK VINA RESULT:    -4.881      6.745      9.485
REMARK INTER + INTRA:          -7.714
REMARK INTER:                  -6.521
REMARK INTRA:                  -1.193
REMARK UNBOUND:                -0.551
REMARK SMILES OC[C@@H](O)[C@H](O)[C@@H](O)[C@H](O)CO
REMARK SMILES IDX 5 1 3 2 2 3 1 4 4 6 6 8 7 10 8 11 9 13 10 14 11 16 12 17
REMARK H PARENT 1 5 4 7 6 9 8 12 10 15 12 18
ROOT
ATOM      1  C   UNL     1      97.961 105.382  59.538  1.00  0.00     0.176 C 
ENDROOT
BRANCH   1   2
ATOM      2  C   UNL     1      99.048 104.338  59.224  1.00  0.00     0.171 C 
BRANCH   2   3
ATOM      3  C   UNL     1     100.476 104.894  59.307  1.00  0.00     0.190 C 
BRANCH   3   4
ATOM      4  O   UNL     1     100.418 106.307  59.065  1.00  0.00    -0.394 OA
ATOM      5  H   UNL     1     100.643 106.434  58.125  1.00  0.00     0.210 HD
ENDBRANCH   3   4
ENDBRANCH   2   3
BRANCH   2   6
ATOM      6  O   UNL     1      98.964 103.196  60.083  1.00  0.00    -0.388 OA
ATOM      7  H   UNL     1      98.674 103.569  60.942  1.00  0.00     0.211 HD
ENDBRANCH   2   6
ENDBRANCH   1   2
BRANCH   1   8
ATOM      8  O   UNL     1      98.211 105.925  60.849  1.00  0.00    -0.388 OA
ATOM      9  H   UNL     1      97.320 106.118  61.212  1.00  0.00     0.211 HD
ENDBRANCH   1   8
BRANCH   1  10
ATOM     10  C   UNL     1      96.508 104.856  59.495  1.00  0.00     0.176 C 
BRANCH  10  11
ATOM     11  O   UNL     1      96.563 103.537  58.893  1.00  0.00    -0.388 OA
ATOM     12  H   UNL     1      97.496 103.255  59.012  1.00  0.00     0.211 HD
ENDBRANCH  10  11
BRANCH  10  13
ATOM     13  C   UNL     1      95.844 104.714  60.875  1.00  0.00     0.171 C 
BRANCH  13  14
ATOM     14  O   UNL     1      96.512 103.652  61.588  1.00  0.00    -0.388 OA
ATOM     15  H   UNL     1      95.904 102.885  61.534  1.00  0.00     0.211 HD
ENDBRANCH  13  14
BRANCH  13  16
ATOM     16  C   UNL     1      94.362 104.339  60.757  1.00  0.00     0.190 C 
BRANCH  16  17
ATOM     17  O   UNL     1      94.238 102.917  60.872  1.00  0.00    -0.394 OA
ATOM     18  H   UNL     1      95.138 102.553  60.967  1.00  0.00     0.210 HD
ENDBRANCH  16  17
ENDBRANCH  13  16
ENDBRANCH  10  13
ENDBRANCH   1  10
TORSDOF 11
ENDMDL
MODEL 8
REMARK VINA RESULT:    -4.850      7.719      9.157
REMARK INTER + INTRA:          -7.669
REMARK INTER:                  -6.448
REMARK INTRA:                  -1.221
REMARK UNBOUND:                -0.551
REMARK SMILES OC[C@@H](O)[C@H](O)[C@@H](O)[C@H](O)CO
REMARK SMILES IDX 5 1 3 2 2 3 1 4 4 6 6 8 7 10 8 11 9 13 10 14 11 16 12 17
REMARK H PARENT 1 5 4 7 6 9 8 12 10 15 12 18
ROOT
ATOM      1  C   UNL     1      97.290 104.925  59.605  1.00  0.00     0.176 C 
ENDROOT
BRANCH   1   2
ATOM      2  C   UNL     1      98.021 103.818  58.826  1.00  0.00     0.171 C 
BRANCH   2   3
ATOM      3  C   UNL     1      98.777 104.331  57.592  1.00  0.00     0.190 C 
BRANCH   3   4
ATOM      4  O   UNL     1     100.003 104.928  58.039  1.00  0.00    -0.394 OA
ATOM      5  H   UNL     1     100.091 104.701  58.983  1.00  0.00     0.210 HD
ENDBRANCH   3   4
ENDBRANCH   2   3
BRANCH   2   6
ATOM      6  O   UNL     1      98.947 103.100  59.649  1.00  0.00    -0.388 OA
ATOM      7  H   UNL     1      98.507 102.235  59.796  1.00  0.00     0.211 HD
ENDBRANCH   2   6
ENDBRANCH   1   2
BRANCH   1   8
ATOM      8  O   UNL     1      98.238 105.587  60.463  1.00  0.00    -0.388 OA
ATOM      9  H   UNL     1      98.658 106.267  59.893  1.00  0.00     0.211 HD
ENDBRANCH   1   8
BRANCH   1  10
ATOM     10  C   UNL     1      96.098 104.449  60.467  1.00  0.00     0.176 C 
BRANCH  10  11
ATOM     11  O   UNL     1      96.661 103.690  61.568  1.00  0.00    -0.388 OA
ATOM     12  H   UNL     1      96.086 102.896  61.635  1.00  0.00     0.211 HD
ENDBRANCH  10  11
BRANCH  10  13
ATOM     13  C   UNL     1      95.255 105.587  61.066  1.00  0.00     0.171 C 
BRANCH  13  14
ATOM     14  O   UNL     1      95.697 106.830  60.481  1.00  0.00    -0.388 OA
ATOM     15  H   UNL     1      96.585 106.991  60.863  1.00  0.00     0.211 HD
ENDBRANCH  13  14
BRANCH  13  16
ATOM     16  C   UNL     1      95.438 105.692  62.584  1.00  0.00     0.190 C 
BRANCH  16  17
ATOM     17  O   UNL     1      96.698 106.318  62.852  1.00  0.00    -0.394 OA
ATOM     18  H   UNL     1      96.534 107.043  63.484  1.00  0.00     0.210 HD
ENDBRANCH  16  17
ENDBRANCH  13  16
ENDBRANCH  10  13
ENDBRANCH   1  10
TORSDOF 11
ENDMDL
MODEL 9
REMARK VINA RESULT:    -4.845      6.697      8.117
REMARK INTER + INTRA:          -7.661
REMARK INTER:                  -6.530
REMARK INTRA:                  -1.131
REMARK UNBOUND:                -0.551
REMARK SMILES OC[C@@H](O)[C@H](O)[C@@H](O)[C@H](O)CO
REMARK SMILES IDX 5 1 3 2 2 3 1 4 4 6 6 8 7 10 8 11 9 13 10 14 11 16 12 17
REMARK H PARENT 1 5 4 7 6 9 8 12 10 15 12 18
ROOT
ATOM      1  C   UNL     1      95.644 104.549  59.424  1.00  0.00     0.176 C 
ENDROOT
BRANCH   1   2
ATOM      2  C   UNL     1      95.558 104.537  60.960  1.00  0.00     0.171 C 
BRANCH   2   3
ATOM      3  C   UNL     1      94.153 104.229  61.495  1.00  0.00     0.190 C 
BRANCH   3   4
ATOM      4  O   UNL     1      93.869 102.848  61.228  1.00  0.00    -0.394 OA
ATOM      5  H   UNL     1      92.960 102.818  60.876  1.00  0.00     0.210 HD
ENDBRANCH   3   4
ENDBRANCH   2   3
BRANCH   2   6
ATOM      6  O   UNL     1      96.473 103.603  61.544  1.00  0.00    -0.388 OA
ATOM      7  H   UNL     1      96.544 103.897  62.478  1.00  0.00     0.211 HD
ENDBRANCH   2   6
ENDBRANCH   1   2
BRANCH   1   8
ATOM      8  O   UNL     1      95.248 103.254  58.931  1.00  0.00    -0.388 OA
ATOM      9  H   UNL     1      96.091 102.768  58.803  1.00  0.00     0.211 HD
ENDBRANCH   1   8
BRANCH   1  10
ATOM     10  C   UNL     1      97.035 104.889  58.841  1.00  0.00     0.176 C 
BRANCH  10  11
ATOM     11  O   UNL     1      97.819 105.435  59.934  1.00  0.00    -0.388 OA
ATOM     12  H   UNL     1      98.283 106.204  59.539  1.00  0.00     0.211 HD
ENDBRANCH  10  11
BRANCH  10  13
ATOM     13  C   UNL     1      97.798 103.680  58.276  1.00  0.00     0.171 C 
BRANCH  13  14
ATOM     14  O   UNL     1      98.446 103.004  59.373  1.00  0.00    -0.388 OA
ATOM     15  H   UNL     1      98.278 103.567  60.157  1.00  0.00     0.211 HD
ENDBRANCH  13  14
BRANCH  13  16
ATOM     16  C   UNL     1      98.885 104.108  57.283  1.00  0.00     0.190 C 
BRANCH  16  17
ATOM     17  O   UNL     1      99.941 104.749  58.007  1.00  0.00    -0.394 OA
ATOM     18  H   UNL     1     100.777 104.533  57.554  1.00  0.00     0.210 HD
ENDBRANCH  16  17
ENDBRANCH  13  16
ENDBRANCH  10  13
ENDBRANCH   1  10
TORSDOF 11
ENDMDL
