REMARK VINA RESULT:    -5.210      0.000      0.000
REMARK INTER + INTRA:          -8.197
REMARK INTER:                  -7.646
REMARK INTRA:                  -0.551
REMARK UNBOUND:                -0.551
REMARK SMILES OC[C@@H](O)[C@H](O)[C@@H](O)[C@H](O)CO
REMARK SMILES IDX 5 1 3 2 2 3 1 4 4 6 6 8 7 10 8 11 9 13 10 14 11 16 12 17
REMARK H PARENT 1 5 4 7 6 9 8 12 10 15 12 18
ROOT
ATOM      1  C   UNL     1      88.847 104.508  56.479  1.00  0.00     0.176 C 
ENDROOT
BRANCH   1   2
ATOM      2  C   UNL     1      88.799 102.990  56.235  1.00  0.00     0.171 C 
BRANCH   2   3
ATOM      3  C   UNL     1      87.464 102.344  56.633  1.00  0.00     0.190 C 
BRANCH   3   4
ATOM      4  O   UNL     1      86.440 102.886  55.787  1.00  0.00    -0.394 OA
ATOM      5  H   UNL     1      85.632 102.934  56.331  1.00  0.00     0.210 HD
ENDBRANCH   3   4
ENDBRANCH   2   3
BRANCH   2   6
ATOM      6  O   UNL     1      89.067 102.654  54.870  1.00  0.00    -0.388 OA
ATOM      7  H   UNL     1      88.934 103.499  54.390  1.00  0.00     0.211 HD
ENDBRANCH   2   6
ENDBRANCH   1   2
BRANCH   1   8
ATOM      8  O   UNL     1      88.390 105.180  55.290  1.00  0.00    -0.388 OA
ATOM      9  H   UNL     1      88.026 106.033  55.610  1.00  0.00     0.211 HD
ENDBRANCH   1   8
BRANCH   1  10
ATOM     10  C   UNL     1      90.236 105.073  56.857  1.00  0.00     0.176 C 
BRANCH  10  11
ATOM     11  O   UNL     1      90.084 106.513  56.952  1.00  0.00    -0.388 OA
ATOM     12  H   UNL     1      89.831 106.790  56.044  1.00  0.00     0.211 HD
ENDBRANCH  10  11
BRANCH  10  13
ATOM     13  C   UNL     1      90.779 104.570  58.205  1.00  0.00     0.171 C 
BRANCH  13  14
ATOM     14  O   UNL     1      90.071 105.255  59.259  1.00  0.00    -0.388 OA
ATOM     15  H   UNL     1      90.046 106.195  58.982  1.00  0.00     0.211 HD
ENDBRANCH  13  14
BRANCH  13  16
ATOM     16  C   UNL     1      92.272 104.879  58.366  1.00  0.00     0.190 C 
BRANCH  16  17
ATOM     17  O   UNL     1      92.722 105.592  57.209  1.00  0.00    -0.394 OA
ATOM     18  H   UNL     1      92.385 105.118  56.426  1.00  0.00     0.210 HD
ENDBRANCH  16  17
ENDBRANCH  13  16
ENDBRANCH  10  13
ENDBRANCH   1  10
TORSDOF 11
