@<TRIPOS>MOLECULE
1024
   30    32     1     0     0
SMALL
bcc


@<TRIPOS>ATOM
      1 O           -1.1450     3.7830     0.0180 o          1 UNL      -0.455100
      2 O1           1.5090     3.3610     0.0150 o          1 UNL      -0.420100
      3 O2          -0.1160    -3.0420     1.2260 oh         1 UNL      -0.586100
      4 O3          -4.4610    -2.0320    -0.0250 oh         1 UNL      -0.613100
      5 O4          -0.2320    -3.2050    -1.0290 o          1 UNL      -0.551000
      6 OXT         -5.6720    -0.1190    -0.0100 o          1 UNL      -0.526000
      7 O5           5.1610     0.7180    -0.0080 oh         1 UNL      -0.563100
      8 O6           5.1960    -1.5460    -0.0260 o          1 UNL      -0.536000
      9 N           -2.0830    -0.6970    -0.0150 na         1 UNL      -0.095100
     10 N1           2.6170     0.8790    -0.0050 nb         1 UNL      -0.545000
     11 C           -1.0480     0.2010    -0.0090 cc         1 UNL      -0.033300
     12 C1           0.3790    -0.0810    -0.0110 ca         1 UNL      -0.021300
     13 C2          -1.5990     1.4690     0.0010 cd         1 UNL      -0.233600
     14 C3           1.2710     0.9980    -0.0030 ca         1 UNL       0.343800
     15 C4           0.9240    -1.3630    -0.0220 ca         1 UNL      -0.100600
     16 C5          -3.0050     1.3330     0.0000 cd         1 UNL      -0.039000
     17 CA          -3.2770    -0.0180    -0.0100 cc         1 UNL      -0.167900
     18 C6          -0.7390     2.6300     0.0090 c          1 UNL       0.527700
     19 C7           0.7640     2.3950     0.0080 c          1 UNL       0.383600
     20 C8           2.3080    -1.5210    -0.0240 ca         1 UNL      -0.127300
     21 C12          3.1000    -0.3830    -0.0150 ca         1 UNL       0.371800
     22 C9           0.1520    -2.5990    -0.0340 c          1 UNL       0.656700
     23 C10         -4.5530    -0.6620    -0.0140 c          1 UNL       0.674700
     24 C11          4.5490    -0.5010    -0.0170 c          1 UNL       0.550600
     25 H           -2.0110    -1.7040    -0.0220 hn         1 UNL       0.348700
     26 H1          -3.7370     2.1290     0.0060 ha         1 UNL       0.194000
     27 H2           2.7520    -2.5120    -0.0330 ha         1 UNL       0.189000
     28 H3          -0.6370    -3.8720     1.2160 ho         1 UNL       0.460000
     29 H4          -5.3460    -2.4540    -0.0280 ho         1 UNL       0.458000
     30 H5           6.1380     0.6340    -0.0090 ho         1 UNL       0.453000
@<TRIPOS>BOND
     1     1    18 2   
     2     2    19 2   
     3     3    22 1   
     4     3    28 1   
     5     4    23 1   
     6     4    29 1   
     7     5    22 2   
     8     6    23 2   
     9     7    24 1   
    10     7    30 1   
    11     8    24 2   
    12     9    11 1   
    13     9    17 1   
    14     9    25 1   
    15    10    14 ar  
    16    10    21 ar  
    17    11    12 1   
    18    11    13 2   
    19    12    14 ar  
    20    12    15 ar  
    21    13    16 1   
    22    13    18 1   
    23    14    19 1   
    24    15    20 ar  
    25    15    22 1   
    26    16    17 2   
    27    16    26 1   
    28    17    23 1   
    29    18    19 1   
    30    20    21 ar  
    31    20    27 1   
    32    21    24 1   
@<TRIPOS>SUBSTRUCTURE
     1 UNL         1 TEMP              0 ****  ****    0 ROOT
