@<TRIPOS>MOLECULE
87572
 66 66 0 0 0
SMALL
GASTEIGER

@<TRIPOS>ATOM
      1 SI         -2.9629   -0.9285    0.4976 Si      1  UNL1        0.0000
      2 SI         -2.3196    2.1380    0.7477 Si      1  UNL1        0.0000
      3 SI         -0.5658   -2.9475    0.3999 Si      1  UNL1        0.0000
      4 SI          0.6123    3.2498    0.5550 Si      1  UNL1        0.0000
      5 SI          2.4417   -2.0927    0.2104 Si      1  UNL1        0.0000
      6 SI          2.7642    0.9782    0.7459 Si      1  UNL1        0.0000
      7 O          -2.6884    0.6601    0.0515 O.3     1  UNL1        0.0000
      8 O          -1.7590   -1.9086   -0.1314 O.3     1  UNL1        0.0000
      9 O          -0.9103    2.7455    0.0867 O.3     1  UNL1        0.0000
     10 O           0.9095   -2.5528   -0.2780 O.3     1  UNL1        0.0000
     11 O           1.7371    2.1109    0.0760 O.3     1  UNL1        0.0000
     12 O           2.6461   -0.4638   -0.0894 O.3     1  UNL1        0.0000
     13 C          -3.0946   -1.0474    2.3813 C.3     1  UNL1        0.0000
     14 C          -3.7513    3.3434    0.5373 C.3     1  UNL1        0.0000
     15 C          -0.4650   -2.8664    2.2830 C.3     1  UNL1        0.0000
     16 C           0.7069    3.5640    2.4214 C.3     1  UNL1        0.0000
     17 C           2.7264   -2.4800    2.0438 C.3     1  UNL1        0.0000
     18 C           4.5406    1.5949    0.7421 C.3     1  UNL1        0.0000
     19 C          -4.6304   -1.5764   -0.0373 C.2     1  UNL1        0.0000
     20 C          -2.0634    1.9491    2.5881 C.2     1  UNL1        0.0000
     21 C          -0.9490   -4.7429    0.0981 C.2     1  UNL1        0.0000
     22 C           0.9818    4.9406   -0.1386 C.2     1  UNL1        0.0000
     23 C           3.7794   -3.1222   -0.5881 C.2     1  UNL1        0.0000
     24 C           2.2833    0.7001    2.5305 C.2     1  UNL1        0.0000
     25 C          -5.7369   -0.8664   -0.2608 C.2     1  UNL1        0.0000
     26 C          -2.6900    2.5919    3.5811 C.2     1  UNL1        0.0000
     27 C          -1.9708   -5.2904   -0.5704 C.2     1  UNL1        0.0000
     28 C           2.0696    5.3216   -0.8244 C.2     1  UNL1        0.0000
     29 C           3.6752   -4.4040   -0.9784 C.2     1  UNL1        0.0000
     30 C           3.0261    0.8950    3.6189 C.2     1  UNL1        0.0000
     31 H          -3.8506   -0.3505    2.7514 H       1  UNL1        0.0000
     32 H          -3.3874   -2.0539    2.6900 H       1  UNL1        0.0000
     33 H          -2.1461   -0.8023    2.8559 H       1  UNL1        0.0000
     34 H          -4.6518    2.9459    1.0197 H       1  UNL1        0.0000
     35 H          -3.5152    4.3039    1.0094 H       1  UNL1        0.0000
     36 H          -3.9779    3.5243   -0.5152 H       1  UNL1        0.0000
     37 H          -1.4165   -3.1593    2.7282 H       1  UNL1        0.0000
     38 H           0.2891   -3.5565    2.6619 H       1  UNL1        0.0000
     39 H          -0.2170   -1.8500    2.5961 H       1  UNL1        0.0000
     40 H           1.6939    3.9440    2.6934 H       1  UNL1        0.0000
     41 H          -0.0414    4.3005    2.7202 H       1  UNL1        0.0000
     42 H           0.5293    2.6516    2.9951 H       1  UNL1        0.0000
     43 H           2.6134   -3.5514    2.2278 H       1  UNL1        0.0000
     44 H           3.7317   -2.1772    2.3441 H       1  UNL1        0.0000
     45 H           2.0144   -1.9501    2.6756 H       1  UNL1        0.0000
     46 H           4.6173    2.5466    1.2776 H       1  UNL1        0.0000
     47 H           5.1978    0.8724    1.2374 H       1  UNL1        0.0000
     48 H           4.9048    1.7436   -0.2780 H       1  UNL1        0.0000
     49 H          -4.6612   -2.6622   -0.0713 H       1  UNL1        0.0000
     50 H          -1.2795    1.2396    2.8235 H       1  UNL1        0.0000
     51 H          -0.2307   -5.3934    0.5913 H       1  UNL1        0.0000
     52 H           0.2278    5.6713    0.1289 H       1  UNL1        0.0000
     53 H           4.7378   -2.6140   -0.6311 H       1  UNL1        0.0000
     54 H           1.2665    0.3445    2.6241 H       1  UNL1        0.0000
     55 H          -6.6764   -1.3685   -0.4881 H       1  UNL1        0.0000
     56 H          -5.7572    0.2211   -0.2093 H       1  UNL1        0.0000
     57 H          -2.4184    2.3933    4.6146 H       1  UNL1        0.0000
     58 H          -3.4708    3.3265    3.4111 H       1  UNL1        0.0000
     59 H          -2.0783   -6.3629   -0.6136 H       1  UNL1        0.0000
     60 H          -2.7246   -4.6900   -1.0803 H       1  UNL1        0.0000
     61 H           2.1904    6.3600   -1.1202 H       1  UNL1        0.0000
     62 H           2.8589    4.6294   -1.0989 H       1  UNL1        0.0000
     63 H           4.5458   -4.9357   -1.3469 H       1  UNL1        0.0000
     64 H           2.7411   -4.9539   -0.9240 H       1  UNL1        0.0000
     65 H           2.6142    0.6953    4.6095 H       1  UNL1        0.0000
     66 H           4.0509    1.2543    3.5856 H       1  UNL1        0.0000
@<TRIPOS>BOND
     1     1     7    1
     2     1     8    1
     3     1    13    1
     4     1    19    1
     5     2     7    1
     6     2     9    1
     7     2    14    1
     8     2    20    1
     9     3     8    1
    10     3    10    1
    11     4     9    1
    12     4    11    1
    13     5    10    1
    14     5    12    1
    15     6    11    1
    16     6    12    1
    17     6    18    1
    18     6    24    1
    19    13    31    1
    20    13    32    1
    21    13    33    1
    22    14    34    1
    23    14    35    1
    24    14    36    1
    25    15    37    1
    26    15    38    1
    27    15    39    1
    28    16    40    1
    29    16    41    1
    30    16    42    1
    31    17    43    1
    32    17    44    1
    33    17    45    1
    34    18    46    1
    35    18    47    1
    36    18    48    1
    37    19    25    2
    38    19    49    1
    39    20    26    2
    40    20    50    1
    41    21    27    2
    42    21    51    1
    43    22    28    2
    44    22    52    1
    45    23    29    2
    46    23    53    1
    47    24    30    2
    48    24    54    1
    49    25    55    1
    50    25    56    1
    51    26    57    1
    52    26    58    1
    53    27    59    1
    54    27    60    1
    55    28    61    1
    56    28    62    1
    57    29    63    1
    58    29    64    1
    59    30    65    1
    60    30    66    1
    61     3    21    1
    62     3    15    1
    63     4    22    1
    64     4    16    1
    65     5    23    1
    66     5    17    1
