@<TRIPOS>MOLECULE
MOL
   26    25     1     0     0
SMALL
bcc


@<TRIPOS>ATOM
      1 O1           3.0240     2.2720    -0.2990 oh         1 MOL      -0.606800
      2 C1           2.5070     0.9430    -0.4550 c3         1 MOL       0.088900
      3 C2           1.5850     0.6490     0.7370 c3         1 MOL       0.097100
      4 O2           0.6400     1.7190     0.8440 oh         1 MOL      -0.612300
      5 C3           0.8990    -0.7260     0.6610 c3         1 MOL       0.116600
      6 O3           1.8990    -1.7240     0.3790 oh         1 MOL      -0.598300
      7 C4          -0.2240    -0.8470    -0.3950 c3         1 MOL       0.116600
      8 O4          -0.4480    -2.2660    -0.6000 oh         1 MOL      -0.598300
      9 C5          -1.5620    -0.2180     0.0280 c3         1 MOL       0.097100
     10 O5          -2.1390    -1.0420     1.0630 oh         1 MOL      -0.612300
     11 C6          -2.5580    -0.1640    -1.1360 c3         1 MOL       0.088900
     12 O6          -3.7830     0.4090    -0.6660 oh         1 MOL      -0.606800
     13 H1           3.6770     2.3980    -1.0120 ho         1 MOL       0.407000
     14 H2           3.3470     0.2440    -0.5000 h1         1 MOL       0.052700
     15 H3           1.9580     0.9240    -1.4010 h1         1 MOL       0.052700
     16 H4           2.1990     0.6830     1.6450 h1         1 MOL       0.063700
     17 H5           1.1900     2.5270     0.7580 ho         1 MOL       0.425500
     18 H6           0.4830    -0.9750     1.6440 h1         1 MOL       0.093200
     19 H7           1.3960    -2.4850     0.0170 ho         1 MOL       0.420000
     20 H8           0.1170    -0.4450    -1.3540 h1         1 MOL       0.093200
     21 H9          -1.0740    -2.5180     0.1140 ho         1 MOL       0.420000
     22 H10         -1.4520     0.7850     0.4440 h1         1 MOL       0.063700
     23 H11         -3.0790    -0.7710     1.1120 ho         1 MOL       0.425500
     24 H12         -2.1830     0.4370    -1.9700 h1         1 MOL       0.052700
     25 H13         -2.7990    -1.1680    -1.4980 h1         1 MOL       0.052700
     26 H14         -3.6190     1.3570    -0.5080 ho         1 MOL       0.407000
@<TRIPOS>BOND
     1     1     2 1   
     2     2     3 1   
     3     3     4 1   
     4     3     5 1   
     5     5     6 1   
     6     5     7 1   
     7     7     8 1   
     8     7     9 1   
     9     9    10 1   
    10     9    11 1   
    11    11    12 1   
    12     1    13 1   
    13     2    14 1   
    14     2    15 1   
    15     3    16 1   
    16     4    17 1   
    17     5    18 1   
    18     6    19 1   
    19     7    20 1   
    20     8    21 1   
    21     9    22 1   
    22    10    23 1   
    23    11    24 1   
    24    11    25 1   
    25    12    26 1   
@<TRIPOS>SUBSTRUCTURE
     1 MOL         1 TEMP              0 ****  ****    0 ROOT
