@<TRIPOS>MOLECULE
5780
 26 25 0 0 0
SMALL
GASTEIGER

@<TRIPOS>ATOM
      1 O           5.4274   -1.3188    1.2891 O.3     1  UNL1       -0.3865
      2 O           5.3406    1.3394    0.5030 O.3     1  UNL1       -0.3865
      3 O           2.1887    0.4124    1.7099 O.3     1  UNL1       -0.3869
      4 O           7.4241    0.2292    2.1706 O.3     1  UNL1       -0.3869
      5 O           1.2864   -1.9212    0.4941 O.3     1  UNL1       -0.3924
      6 O           7.2028    3.0336    1.4535 O.3     1  UNL1       -0.3924
      7 C           4.4810   -0.4199    1.8884 C.3     1  UNL1        0.1114
      8 C           5.0883    1.0011    1.8776 C.3     1  UNL1        0.1114
      9 C           3.1388   -0.4972    1.1300 C.3     1  UNL1        0.1065
     10 C           6.4035    1.0767    2.7116 C.3     1  UNL1        0.1065
     11 C           2.5436   -1.9087    1.1757 C.3     1  UNL1        0.0727
     12 C           6.9753    2.5049    2.7619 C.3     1  UNL1        0.0727
     13 H           4.3298   -0.7345    2.9299 H       1  UNL1        0.0647
     14 H           4.3672    1.7212    2.2792 H       1  UNL1        0.0647
     15 H           3.2764   -0.2119    0.0795 H       1  UNL1        0.0643
     16 H           6.2069    0.7437    3.7332 H       1  UNL1        0.0643
     17 H           3.1985   -2.6377    0.6907 H       1  UNL1        0.0584
     18 H           2.3606   -2.2310    2.2060 H       1  UNL1        0.0584
     19 H           6.2749    3.1729    3.2736 H       1  UNL1        0.0584
     20 H           7.9279    2.5209    3.3044 H       1  UNL1        0.0584
     21 H           5.6930   -0.8723    0.4547 H       1  UNL1        0.2100
     22 H           5.9143    2.1376    0.5236 H       1  UNL1        0.2100
     23 H           1.6701    0.7653    0.9630 H       1  UNL1        0.2100
     24 H           7.0278   -0.6641    2.0843 H       1  UNL1        0.2100
     25 H           0.6892   -1.3698    1.0299 H       1  UNL1        0.2095
     26 H           8.0953    2.7232    1.2016 H       1  UNL1        0.2095
@<TRIPOS>BOND
     1     1     7    1
     2     1    21    1
     3     2    22    1
     4     3    23    1
     5     4    10    1
     6     4    24    1
     7     5    11    1
     8     5    25    1
     9     6    12    1
    10     6    26    1
    11     7    13    1
    12     8    10    1
    13     8    14    1
    14     9    11    1
    15     9    15    1
    16    10    12    1
    17    10    16    1
    18    11    17    1
    19    11    18    1
    20    12    19    1
    21    12    20    1
    22     8     7    1
    23     8     2    1
    24     9     7    1
    25     9     3    1
