@<TRIPOS>MOLECULE
MOL
   26    25     1     0     0
SMALL
bcc


@<TRIPOS>ATOM
      1 O1           3.1350     0.6730     1.8440 oh         1 MOL      -0.598800
      2 C1           2.7780    -0.1620     0.7350 c3         1 MOL       0.094400
      3 C2           1.3290     0.1500     0.3340 c3         1 MOL       0.073100
      4 O2           0.5010    -0.0810     1.4870 oh         1 MOL      -0.603300
      5 C3           0.8840    -0.7150    -0.8580 c3         1 MOL       0.125100
      6 O3           0.8630    -2.0960    -0.4790 oh         1 MOL      -0.600300
      7 C4          -0.4540    -0.2970    -1.5150 c3         1 MOL       0.125100
      8 O4          -0.3230     1.0220    -2.0610 oh         1 MOL      -0.600300
      9 C5          -1.7560    -0.4930    -0.6840 c3         1 MOL       0.073100
     10 O5          -1.6860    -1.6620     0.1370 oh         1 MOL      -0.603300
     11 C6          -2.2010     0.7410     0.1150 c3         1 MOL       0.094400
     12 O6          -2.5560     1.7980    -0.7800 oh         1 MOL      -0.598800
     13 H1           3.2850     1.5680     1.4890 ho         1 MOL       0.411500
     14 H2           2.8800    -1.1970     1.0750 h1         1 MOL       0.061200
     15 H3           3.4810     0.0160    -0.0850 h1         1 MOL       0.061200
     16 H4           1.2460     1.2160     0.0950 h1         1 MOL       0.061200
     17 H5           1.0720     0.1160     2.2580 ho         1 MOL       0.419000
     18 H6           1.6570    -0.6170    -1.6310 h1         1 MOL       0.072700
     19 H7           0.0730    -2.1820     0.1020 ho         1 MOL       0.423500
     20 H8          -0.5670    -0.9680    -2.3780 h1         1 MOL       0.072700
     21 H9          -1.2040     1.4520    -2.0120 ho         1 MOL       0.423500
     22 H10         -2.5510    -0.6810    -1.4190 h1         1 MOL       0.061200
     23 H11         -2.5420    -1.7540     0.5910 ho         1 MOL       0.419000
     24 H12         -1.4260     1.1070     0.7870 h1         1 MOL       0.061200
     25 H13         -3.0780     0.4990     0.7250 h1         1 MOL       0.061200
     26 H14         -2.8390     2.5460    -0.2220 ho         1 MOL       0.411500
@<TRIPOS>BOND
     1     1     2 1   
     2     2     3 1   
     3     3     4 1   
     4     3     5 1   
     5     5     6 1   
     6     5     7 1   
     7     7     8 1   
     8     7     9 1   
     9     9    10 1   
    10     9    11 1   
    11    11    12 1   
    12     1    13 1   
    13     2    14 1   
    14     2    15 1   
    15     3    16 1   
    16     4    17 1   
    17     5    18 1   
    18     6    19 1   
    19     7    20 1   
    20     8    21 1   
    21     9    22 1   
    22    10    23 1   
    23    11    24 1   
    24    11    25 1   
    25    12    26 1   
@<TRIPOS>SUBSTRUCTURE
     1 MOL         1 TEMP              0 ****  ****    0 ROOT
