@<TRIPOS>MOLECULE
*****
 26 25 0 0 0
SMALL
GASTEIGER

@<TRIPOS>ATOM
      1 O           0.0000    0.0000    0.0000 O.3     1  UNL1       -0.3924
      2 C           0.0000    0.0000    0.0000 C.3     1  UNL1        0.0727
      3 C           0.0000    0.0000    0.0000 C.3     1  UNL1        0.1065
      4 O           0.0000    0.0000    0.0000 O.3     1  UNL1       -0.3869
      5 C           0.0000    0.0000    0.0000 C.3     1  UNL1        0.1114
      6 O           0.0000    0.0000    0.0000 O.3     1  UNL1       -0.3865
      7 C           0.0000    0.0000    0.0000 C.3     1  UNL1        0.1114
      8 O           0.0000    0.0000    0.0000 O.3     1  UNL1       -0.3865
      9 C           0.0000    0.0000    0.0000 C.3     1  UNL1        0.1065
     10 O           0.0000    0.0000    0.0000 O.3     1  UNL1       -0.3869
     11 C           0.0000    0.0000    0.0000 C.3     1  UNL1        0.0727
     12 O           0.0000    0.0000    0.0000 O.3     1  UNL1       -0.3924
     13 H           0.0000    0.0000    0.0000 H       1  UNL1        0.2095
     14 H           0.0000    0.0000    0.0000 H       1  UNL1        0.0584
     15 H           0.0000    0.0000    0.0000 H       1  UNL1        0.0584
     16 H           0.0000    0.0000    0.0000 H       1  UNL1        0.0643
     17 H           0.0000    0.0000    0.0000 H       1  UNL1        0.2100
     18 H           0.0000    0.0000    0.0000 H       1  UNL1        0.0647
     19 H           0.0000    0.0000    0.0000 H       1  UNL1        0.2100
     20 H           0.0000    0.0000    0.0000 H       1  UNL1        0.0647
     21 H           0.0000    0.0000    0.0000 H       1  UNL1        0.2100
     22 H           0.0000    0.0000    0.0000 H       1  UNL1        0.0643
     23 H           0.0000    0.0000    0.0000 H       1  UNL1        0.2100
     24 H           0.0000    0.0000    0.0000 H       1  UNL1        0.0584
     25 H           0.0000    0.0000    0.0000 H       1  UNL1        0.0584
     26 H           0.0000    0.0000    0.0000 H       1  UNL1        0.2095
@<TRIPOS>BOND
     1     1     2    1
     2     2     3    1
     3     3     4    1
     4     3     5    1
     5     5     6    1
     6     5     7    1
     7     7     8    1
     8     7     9    1
     9     9    10    1
    10     9    11    1
    11    11    12    1
    12     1    13    1
    13     2    14    1
    14     2    15    1
    15     3    16    1
    16     4    17    1
    17     5    18    1
    18     6    19    1
    19     7    20    1
    20     8    21    1
    21     9    22    1
    22    10    23    1
    23    11    24    1
    24    11    25    1
    25    12    26    1
