@<TRIPOS>MOLECULE
MOL
   26    25     1     0     0
SMALL
bcc


@<TRIPOS>ATOM
      1 O1          -0.3420     1.8650    -0.6530 oh         1 MOL      -0.609300
      2 O2           0.4060    -0.7480    -1.5430 oh         1 MOL      -0.609300
      3 O3          -2.9540     1.2280     0.0850 oh         1 MOL      -0.608800
      4 O4           2.0110     0.4620     1.5180 oh         1 MOL      -0.608800
      5 O5          -3.7860    -1.3890     0.2660 oh         1 MOL      -0.594800
      6 O6           4.3010    -0.2400     0.0630 oh         1 MOL      -0.594800
      7 C1          -0.6060     0.6860     0.1080 c3         1 MOL       0.093600
      8 C2           0.4980    -0.3460    -0.1770 c3         1 MOL       0.093600
      9 C3          -2.0260     0.1740    -0.2040 c3         1 MOL       0.071600
     10 C4           1.9210     0.1720     0.1170 c3         1 MOL       0.071600
     11 C5          -2.4520    -1.0360     0.6240 c3         1 MOL       0.137900
     12 C6           3.0300    -0.8290    -0.2040 c3         1 MOL       0.137900
     13 H1          -0.5660     0.9940     1.1600 h1         1 MOL       0.079200
     14 H2           0.3170    -1.2290     0.4470 h1         1 MOL       0.079200
     15 H3          -2.1430    -0.0380    -1.2730 h1         1 MOL       0.066200
     16 H4           2.1130     1.1020    -0.4300 h1         1 MOL       0.066200
     17 H5          -2.4430    -0.8130     1.6960 h1         1 MOL       0.050450
     18 H6          -1.8190    -1.9050     0.4340 h1         1 MOL       0.050450
     19 H7           3.0190    -1.1130    -1.2590 h1         1 MOL       0.050450
     20 H8           2.9440    -1.7350     0.4060 h1         1 MOL       0.050450
     21 H9          -0.3660     1.6180    -1.5940 ho         1 MOL       0.418500
     22 H10          0.9000    -1.5790    -1.6410 ho         1 MOL       0.418500
     23 H11         -2.6880     2.0010    -0.4420 ho         1 MOL       0.425500
     24 H12          2.8240     0.9750     1.6590 ho         1 MOL       0.425500
     25 H13         -4.3470    -0.6120     0.4330 ho         1 MOL       0.418500
     26 H14          4.3870    -0.1530     1.0270 ho         1 MOL       0.418500
@<TRIPOS>BOND
     1     1     7 1   
     2     1    21 1   
     3     2     8 1   
     4     2    22 1   
     5     3     9 1   
     6     3    23 1   
     7     4    10 1   
     8     4    24 1   
     9     5    11 1   
    10     5    25 1   
    11     6    12 1   
    12     6    26 1   
    13     7     8 1   
    14     7     9 1   
    15     7    13 1   
    16     8    10 1   
    17     8    14 1   
    18     9    11 1   
    19     9    15 1   
    20    10    12 1   
    21    10    16 1   
    22    11    17 1   
    23    11    18 1   
    24    12    19 1   
    25    12    20 1   
@<TRIPOS>SUBSTRUCTURE
     1 MOL         1 TEMP              0 ****  ****    0 ROOT
