@<TRIPOS>MOLECULE
parameters/PQQ/PQQ.pdb
 30 32 0 0 0
SMALL
GASTEIGER

@<TRIPOS>ATOM
      1 N          -3.7052    1.4473   -0.4636 N.2     1  UNL1       -0.2640
      2 CA         -3.9068    1.6051    0.8439 C.2     1  UNL1        0.1436
      3 C          -5.0659    1.0703    1.6764 C.2     1  UNL1        0.3549
      4 O          -5.4757    1.6724    2.6450 O.2     1  UNL1       -0.2434
      5 OXT        -5.4617   -0.1541    1.2959 O.3     1  UNL1       -0.4761
      6 C          -2.7951    2.1935    1.6676 C.2     1  UNL1       -0.0204
      7 C          -1.8354    1.8505    0.7927 C.2     1  UNL1        0.0341
      8 C          -2.3681    2.1269   -0.5992 C.3     1  UNL1        0.1082
      9 C          -1.4982    0.3744    0.8662 C.2     1  UNL1        0.2330
     10 O          -2.1141   -0.4391    1.5478 O.2     1  UNL1       -0.2834
     11 C          -0.5092   -0.0912   -0.1528 C.2     1  UNL1        0.2511
     12 O           0.2013   -1.0560    0.0642 O.2     1  UNL1       -0.2815
     13 C          -0.4003    0.7430   -1.3633 C.ar    1  UNL1        0.1215
     14 N           0.7938    0.5804   -1.9814 N.ar    1  UNL1       -0.2364
     15 CA          1.1500    1.5075   -2.8838 C.ar    1  UNL1        0.1490
     16 C           2.5871    1.4847   -3.2670 C.2     1  UNL1        0.3553
     17 O           3.1038    2.2868   -4.0236 O.2     1  UNL1       -0.2434
     18 OXT         3.2412    0.4906   -2.6207 O.3     1  UNL1       -0.4761
     19 C           0.2983    2.4918   -3.3318 C.ar    1  UNL1       -0.0149
     20 C          -0.9947    2.5697   -2.7680 C.ar    1  UNL1        0.0687
     21 C          -1.8765    3.6325   -3.2974 C.2     1  UNL1        0.3373
     22 O          -2.6186    4.2946   -2.6006 O.2     1  UNL1       -0.2451
     23 O          -1.7845    3.8036   -4.6411 O.3     1  UNL1       -0.4771
     24 C          -1.3298    1.7495   -1.6532 C.ar    1  UNL1        0.0246
     25 H          -4.8979   -0.5075    0.5779 H       1  UNL1        0.2955
     26 H          -3.0427    3.2373    1.8763 H       1  UNL1        0.0646
     27 H          -2.5576    3.2031   -0.6739 H       1  UNL1        0.0647
     28 H           2.6209   -0.0206   -2.0454 H       1  UNL1        0.2955
     29 H           0.6627    3.2396   -4.0297 H       1  UNL1        0.0649
     30 H          -1.2514    3.1649   -5.1555 H       1  UNL1        0.2954
@<TRIPOS>BOND
     1     1     2    2
     2     1     8    1
     3     2     6    1
     4     3     4    2
     5     3     5    1
     6     6     7    2
     7     7     8    1
     8     7     9    1
     9     8    24    1
    10     9    11    1
    11    11    13    1
    12    13    14   ar
    13    13    24   ar
    14    15    19   ar
    15    16    17    2
    16    16    18    1
    17    19    20   ar
    18    20    24   ar
    19    21    22    2
    20    21    23    1
    21    14    15   ar
    22     2     3    1
    23     9    10    2
    24    11    12    2
    25    15    16    1
    26    20    21    1
    27     5    25    1
    28     6    26    1
    29     8    27    1
    30    18    28    1
    31    19    29    1
    32    23    30    1
