@<TRIPOS>MOLECULE
*****
 23 25 0 0 0
SMALL
GASTEIGER

@<TRIPOS>ATOM
      1 O           2.6197    1.0753    0.2713 O.3     1  UNL1       -0.4770
      2 C           2.2877   -0.2014   -0.0181 C.2     1  UNL1        0.3420
      3 O           1.4299   -0.4743   -0.8439 O.2     1  UNL1       -0.2449
      4 C           3.0572   -1.2260    0.7189 C.ar    1  UNL1        0.1239
      5 C           2.8025   -2.5264    0.4888 C.ar    1  UNL1        0.0460
      6 N           3.4481   -3.6143    1.0363 N.ar    1  UNL1       -0.2539
      7 C           4.4472   -3.3944    1.8318 C.ar    1  UNL1        0.0755
      8 C           5.2120   -4.5391    2.3843 C.ar    1  UNL1       -0.0226
      9 C           6.2939   -4.2840    3.1145 C.ar    1  UNL1        0.0547
     10 C           7.2664   -5.2050    3.7083 C.ar    1  UNL1        0.2538
     11 O           7.2792   -6.4102    3.6934 O.2     1  UNL1       -0.2814
     12 C           8.2697   -4.1907    4.3330 C.ar    1  UNL1        0.3183
     13 O           9.2897   -4.5466    4.8926 O.2     1  UNL1       -0.2617
     14 N           7.8567   -2.8693    4.1357 N.ar    1  UNL1       -0.2057
     15 C           6.7564   -2.9248    3.4491 C.ar    1  UNL1        0.0797
     16 C           5.9606   -1.7911    2.9820 C.ar    1  UNL1       -0.0226
     17 C           4.8892   -2.0266    2.2126 C.ar    1  UNL1        0.0499
     18 C           4.1229   -0.8845    1.6756 C.ar    1  UNL1        0.2036
     19 O           4.3590    0.2837    1.9720 O.2     1  UNL1       -0.2863
     20 H           3.3186    1.1870    0.9597 H       1  UNL1        0.2954
     21 H           2.0178   -2.7990   -0.2201 H       1  UNL1        0.0839
     22 H           4.8905   -5.5442    2.1331 H       1  UNL1        0.0647
     23 H           6.2956   -0.7963    3.2548 H       1  UNL1        0.0647
@<TRIPOS>BOND
     1     1     2    1
     2     2     3    2
     3     2     4    1
     4     4     5   ar
     5     5     6   ar
     6     6     7   ar
     7     7     8   ar
     8     8     9   ar
     9     9    10   ar
    10    10    11    2
    11    10    12   ar
    12    12    13    2
    13    12    14   ar
    14    14    15   ar
    15     9    15   ar
    16    15    16   ar
    17    16    17   ar
    18     7    17   ar
    19    17    18   ar
    20     4    18   ar
    21    18    19    2
    22     1    20    1
    23     5    21    1
    24     8    22    1
    25    16    23    1
