@<TRIPOS>MOLECULE
MOL
   26    25     1     0     0
SMALL
bcc


@<TRIPOS>ATOM
      1 O1          -1.1860    -1.7940    -1.0340 oh         1 MOL      -0.595800
      2 O2           1.5480    -1.5610    -0.8900 oh         1 MOL      -0.595800
      3 O3          -2.8510    -0.5750     0.8130 oh         1 MOL      -0.600300
      4 O4           1.7110    -0.5690     1.7690 oh         1 MOL      -0.600300
      5 O5          -2.8750     2.0270    -0.0840 oh         1 MOL      -0.588800
      6 O6           2.7170     1.6740    -0.9160 oh         1 MOL      -0.588800
      7 C1          -0.6180    -1.0290     0.0280 c3         1 MOL       0.096600
      8 C2           0.7400    -0.4760    -0.4350 c3         1 MOL       0.096600
      9 C3          -1.6130     0.0620     0.4720 c3         1 MOL       0.072600
     10 C4           1.4920     0.3100     0.6580 c3         1 MOL       0.072600
     11 C5          -1.9260     1.0990    -0.6050 c3         1 MOL       0.096900
     12 C6           2.8620     0.8300     0.2240 c3         1 MOL       0.096900
     13 H1          -0.4780    -1.7450     0.8460 h1         1 MOL       0.098700
     14 H2           0.5960     0.1600    -1.3150 h1         1 MOL       0.098700
     15 H3          -1.2670     0.5670     1.3790 h1         1 MOL       0.064200
     16 H4           0.8800     1.1530     0.9950 h1         1 MOL       0.064200
     17 H5          -2.3730     0.6460    -1.4950 h1         1 MOL       0.056700
     18 H6          -1.0400     1.6660    -0.8990 h1         1 MOL       0.056700
     19 H7           3.5410     0.0100    -0.0330 h1         1 MOL       0.056700
     20 H8           3.3400     1.3990     1.0280 h1         1 MOL       0.056700
     21 H9          -1.2040    -1.2400    -1.8330 ho         1 MOL       0.422500
     22 H10          1.7240    -2.1370    -0.1260 ho         1 MOL       0.422500
     23 H11         -2.6660    -1.2100     1.5260 ho         1 MOL       0.414000
     24 H12          2.1330    -0.0480     2.4740 ho         1 MOL       0.414000
     25 H13         -3.6630     1.5210     0.1800 ho         1 MOL       0.406000
     26 H14          2.1250     2.4040    -0.6640 ho         1 MOL       0.406000
@<TRIPOS>BOND
     1     1     7 1   
     2     1    21 1   
     3     2     8 1   
     4     2    22 1   
     5     3     9 1   
     6     3    23 1   
     7     4    10 1   
     8     4    24 1   
     9     5    11 1   
    10     5    25 1   
    11     6    12 1   
    12     6    26 1   
    13     7     8 1   
    14     7     9 1   
    15     7    13 1   
    16     8    10 1   
    17     8    14 1   
    18     9    11 1   
    19     9    15 1   
    20    10    12 1   
    21    10    16 1   
    22    11    17 1   
    23    11    18 1   
    24    12    19 1   
    25    12    20 1   
@<TRIPOS>SUBSTRUCTURE
     1 MOL         1 TEMP              0 ****  ****    0 ROOT
